%chk=frag19-conf0.chk
#B3LYP/6-31G* Integral=(Grid=UltraFine) freq Opt pop=none

Optimization for frag19-conf0

1  1
   C    0.8782111588 -1.0645906907 -1.2439858621 
   C    2.3209580845 -1.4810606369 -1.2114550609 
   O    2.6525710339 -2.6622284374 -1.2474831603 
   N    3.2125772455 -0.4284358887 -1.1774562351 
   C    4.6486134247 -0.6319817496 -1.0840034413 
   C    5.1846396505 -1.2144049197 -2.3724149738 
   C    5.4903791200 -0.4005612014 -3.4624975596 
   C    5.7084116305 -0.9794465393 -4.7089701842 
   N    5.6167436750 -2.3183500638 -4.8716890012 
   C    5.6671716270 -2.9111951753 -6.2163785942 
   C    5.4120437489 -3.1310061747 -3.8127007839 
   C    5.2164716955 -2.5996850593 -2.5484010884 
   H    0.2533752862 -1.9519130006 -1.3874399982 
   H    0.7027025869 -0.3799762403 -2.0780771222 
   H    0.6075160359 -0.5892543585 -0.2988055418 
   H    2.8478591485  0.4896380109 -0.9525210024 
   H    4.8653668183 -1.2871847020 -0.2330243345 
   H    5.1132914752  0.3405155369 -0.8852301218 
   H    5.5051235421  0.6826645336 -3.3602077271 
   H    5.9096289037 -0.3744697840 -5.5880651630 
   H    5.7667653399 -2.1256079833 -6.9685718603 
   H    4.7281846232 -3.4510936627 -6.3735742118 
   H    6.5217305607 -3.5898499159 -6.2557163071 
   H    5.3555889124 -4.2003475890 -3.9956697959 
   H    4.9815260852 -3.2683927702 -1.7203412430 



