%chk=frag37-conf1.chk
#B3LYP/6-31G* Integral=(Grid=UltraFine) freq Opt pop=none

Optimization for frag37-conf1

0  1
   C    5.2862542013 -3.5419870324  0.6491392220 
   N    4.5763289249 -2.3058254528  0.9399715225 
   C    3.1569039477 -2.4529404261  1.2619266509 
   C    5.2925960146 -1.1181741972  0.8306625500 
   O    6.4851151771 -1.1154541836  0.4877229321 
   C    4.6399994836  0.2597184772  1.1358402957 
   H    3.5600668286  0.1909103790  1.2248905100 
   N    4.9457497467  1.2596733555 -0.0024308870 
   H    4.4874894828  2.1519864475  0.2027564752 
   H    5.9599557600  1.3915601969 -0.0631789106 
   C    4.4284422797  0.9048741545 -1.3861463029 
   C    2.8961848547  0.7555134695 -1.4936136023 
   O    2.4432954656 -0.2591226176 -0.9120337605 
   O    2.3062319072  1.7483511240 -2.0011444844 
   C    5.2766242145  0.9295512781  2.4094221015 
   C    4.5999013595  2.2680427441  2.7910322030 
   C    3.1552825703  2.0550906164  3.2316681290 
   C    3.0859782544  1.1175071091  4.4329196474 
   C    3.8909673117 -0.1681428875  4.2529805729 
   C    5.2825107171  0.0488829014  3.6689260238 
   H    4.6604407232 -4.4183388113  0.8450420015 
   H    6.1815058842 -3.6021191177  1.2737402286 
   H    5.5798494854 -3.5400904231 -0.4051071445 
   H    2.7700733013 -3.3999604825  0.8691693657 
   H    2.5497113709 -1.6505078731  0.8617016178 
   H    3.0460136778 -2.4708874716  2.3464334736 
   H    4.9552716121  0.0059686383 -1.7152779042 
   H    4.7530495008  1.7382290595 -2.0214026839 
   H    6.3302902808  1.1502506387  2.1812735101 
   H    4.6418956301  2.9981669290  1.9779596751 
   H    5.1566323861  2.7289657999  3.6189610152 
   H    2.5579685016  1.6524738653  2.4063210668 
   H    2.7009951857  3.0176588536  3.4912532975 
   H    2.0393972460  0.8614925422  4.6346235908 
   H    3.4571769587  1.6497975896  5.3163100590 
   H    3.3302056407 -0.8389166728  3.6029289523 
   H    3.9824618949 -0.6759405711  5.2202886478 
   H    5.7667990391 -0.9137192229  3.4729251344 
   H    5.9034908438  0.5412760828  4.4313665475 



