%chk=frag24-conf0.chk
#B3LYP/6-31G* Integral=(Grid=UltraFine) freq Opt pop=none

Optimization for frag24-conf0

0  1
   C    1.0740001309  0.0403873451  0.0328317102 
   C    2.6002758708 -0.0725029394  0.0632732309 
   H    2.9280073913  0.2409493113  1.0498370706 
   N    2.9449193648 -1.5215896292 -0.1019581180 
   S    4.6006333944 -1.8674627914 -0.0239623066 
   C    4.5719028137 -3.6465909090 -0.1006710042 
   O    5.2059418814 -1.3729806471 -1.2356231144 
   O    5.0754784509 -1.4585967090  1.2802255876 
   C    3.1445669057  0.8011774889 -1.0840947986 
   O    2.8481594378  0.4917070776 -2.2461056144 
   N    3.8880577548  1.9418261087 -0.7975944952 
   C    4.3836665865  2.3481264280  0.5105549328 
   C    4.3397829007  2.7797408533 -1.9014308328 
   H    0.6271972816 -0.5046790475  0.8702756864 
   H    0.6596949973 -0.3812389790 -0.8915176180 
   H    0.7561768358  1.0868754014  0.0895448091 
   H    2.5585216413 -1.8615877410 -0.9868225963 
   H    4.0441665337 -3.9480539452 -1.0085123168 
   H    4.0769218486 -4.0390325754  0.7886886146 
   H    5.6038551999 -4.0018228797 -0.1448995328 
   H    4.0148639025  1.7472100393  1.3359371673 
   H    4.0835030153  3.3860591241  0.6861855868 
   H    5.4763029216  2.2876435822  0.5028255339 
   H    3.9540536527  2.4529770113 -2.8697337722 
   H    5.4338451420  2.7669053487 -1.9335906288 
   H    4.0001010863  3.8050930758 -1.7205924963 



