%chk=frag36-conf0.chk
#B3LYP/6-31G* Integral=(Grid=UltraFine) freq Opt pop=none

Optimization for frag36-conf0

0  1
   C    1.1837513459 -0.1072383890 -0.0052208171 
   C    2.6870025649 -0.0405164335  0.0576814621 
   O    3.2825879960  0.7181173525  0.8143220477 
   N    3.3226175806 -0.9030104371 -0.8017127785 
   C    4.7692077851 -0.9651739831 -0.8640578227 
   C    5.2069289773 -1.9835216934 -1.8861913630 
   C    5.5989536558 -1.5832860378 -3.1712212429 
   C    5.7971428435 -2.5332000392 -4.1771075472 
   C    5.6335486170 -3.8937599668 -3.8993396813 
   C    5.6907778571 -4.8568291252 -4.9585428197 
   N    5.6903736399 -5.6336834384 -5.8229105738 
   C    5.3456044853 -4.3043113530 -2.5945001805 
   C    5.1229817107 -3.3533697886 -1.5958622922 
   H    0.7583258517  0.6108771141  0.7025166776 
   H    0.8392951847 -1.1091285331  0.2655477216 
   H    0.8358501792  0.1464126312 -1.0103388265 
   H    2.7786953770 -1.4996382280 -1.4118889907 
   H    5.1548188019 -1.2212940976  0.1292857446 
   H    5.1470968772  0.0337016851 -1.1115037377 
   H    5.7157841889 -0.5268598185 -3.4075509560 
   H    6.0429745896 -2.2011038709 -5.1844029239 
   H    5.2531383377 -5.3622771150 -2.3555819621 
   H    4.8455801534 -3.6840598919 -0.5961918832 



