%chk=frag52-conf2.chk
#B3LYP/6-31G* Integral=(Grid=UltraFine) freq Opt pop=none

Optimization for frag52-conf2

0  1
   C    1.8843288117  2.3253080787 -0.6461614535 
   C    3.2644665087  1.7314705966 -0.5835409273 
   O    4.1869264850  2.2797300556  0.0116659925 
   N    3.3874671532  0.5383494438 -1.2518334408 
   C    4.6404632975 -0.1851983889 -1.3042964554 
   C    5.0830994433 -0.3873243006 -2.7265606615 
   C    5.3682672031  0.7012987485 -3.5519349749 
   C    5.7317609873  0.4532170025 -4.8645001090 
   N    5.8115299705 -0.7841091647 -5.4044015749 
   C    5.5600537946 -1.8253461830 -4.5951530764 
   N    5.7196254748 -3.0980546786 -5.1349590315 
   C    5.2272167629 -1.6728997619 -3.2562685771 
   H    1.8687289337  3.2646578920 -0.0852816381 
   H    1.1597440502  1.6391469538 -0.1994668648 
   H    1.6120750257  2.5324364496 -1.6845636462 
   H    2.5913545452  0.1526457979 -1.7426031628 
   H    4.4588062040 -1.1498173521 -0.8172446897 
   H    5.4250316123  0.3276713577 -0.7389424912 
   H    5.3126559093  1.7199521447 -3.1798099459 
   H    5.9784676872  1.2693593283 -5.5380684199 
   H    5.8224202377 -2.9904640106 -6.1409819595 
   H    4.9772100315 -3.7349192897 -4.8787428983 
   H    5.0742279903 -2.5510028425 -2.6381398717 



