%chk=frag11-conf0.chk
#B3LYP/6-31G* Integral=(Grid=UltraFine) freq Opt pop=none

Optimization for frag11-conf0

1  1
   C    3.5338127751  2.8241202837  0.5330325386 
   N    2.7146105108  1.6412346420  0.7656266797 
   C    1.2738467536  1.7799084775  0.5625638444 
   C    3.2105179132  0.4182631092  1.1886620885 
   O    2.4893817445 -0.5712954755  1.3686824664 
   C    4.7389369161  0.2249458579  1.2966472503 
   H    5.1739496986  0.7837687147  0.4666155176 
   N    5.0640006566 -1.2303322549  0.9725542943 
   H    6.0611839315 -1.4515711991  1.0655522996 
   H    4.5373128105 -1.8270617465  1.6325951198 
   H    4.7290307503 -1.4911572316  0.0387714937 
   C    5.3920937522  0.6396017203  2.6579463676 
   C    4.9523764562 -0.3429764643  3.7649118219 
   C    5.6467941327 -1.5522199821  3.9846075390 
   C    5.1791642467 -2.5017020836  4.8901041906 
   C    4.0336907325 -2.2426240152  5.6312462627 
   C    3.3719870203 -1.0247480754  5.4830502551 
   C    3.8193465711 -0.0813803328  4.5505574553 
   C    6.9346166906  0.7462459330  2.5726264044 
   C    7.6628836887  0.5475855821  1.3835756729 
   C    9.0484657759  0.3849721984  1.4037870357 
   C    9.7449559632  0.4953328754  2.5992117970 
   C    9.0622869799  0.8174019392  3.7673207400 
   C    7.6719134556  0.9548277298  3.7546626223 
   H    2.9285470776  3.6718330733  0.2031895058 
   H    4.2678838480  2.5977440026 -0.2452924359 
   H    4.0535739219  3.0864282091  1.4561393647 
   H    1.0460785101  2.6755494117 -0.0234569073 
   H    0.7834335337  1.8450740404  1.5375035056 
   H    0.8876504036  0.9086919883  0.0239208328 
   H    5.0343751605  1.6410962341  2.9339455317 
   H    6.5791953599 -1.7720120125  3.4675844423 
   H    5.7169767153 -3.4373236983  5.0285395740 
   H    3.6676418461 -2.9824066785  6.3404521983 
   H    2.4995613617 -0.8151161724  6.1000736439 
   H    3.2647199246  0.8512386967  4.4597698049 
   H    7.2020508833  0.4802614252  0.4041110545 
   H    9.5862615088  0.1618220232  0.4841851547 
   H    10.8220653843  0.3458246197  2.6177037675 
   H    9.6127881100  0.9333503966  4.6988401407 
   H    7.1693297871  1.1607270618  4.7004877745 



