%chk=frag49-conf0.chk
#B3LYP/6-31G* Integral=(Grid=UltraFine) freq Opt pop=none

Optimization for frag49-conf0

0  1
   C    1.2362165557 -2.3150852296 -1.6701527429 
   N    2.6621975099 -2.1347124539 -1.5944469443 
   C    3.2149128273 -1.1447052883 -0.8070871521 
   O    2.5403903249 -0.3178280190 -0.1989485790 
   C    4.7487075772 -1.1285574244 -0.7761107370 
   N    5.3493527547 -2.1690033490 -1.6063522990 
   C    6.1713814555 -3.1371231820 -1.0840004219 
   C    6.6837122673 -4.1282557305 -2.0939438002 
   O    6.4637364611 -3.2152601619  0.1046065884 
   H    1.0262686784 -3.1757700655 -2.3091352705 
   H    0.7836582031 -1.4150811445 -2.0949933711 
   H    0.8348392007 -2.4852218371 -0.6675072406 
   H    3.2727406255 -2.8921929723 -1.8728412202 
   H    5.0743001314 -1.2237357983  0.2638406186 
   H    5.0848478545 -0.1678154174 -1.1775661130 
   H    5.2258149606 -2.0952314986 -2.6078115488 
   H    6.2949409946 -3.9267819842 -3.0957804825 
   H    6.3662649097 -5.1315740284 -1.7961351250 
   H    7.7752764574 -4.0797539056 -2.1248371186 



