%chk=frag42-conf0.chk
#B3LYP/6-31G* Integral=(Grid=UltraFine) freq Opt pop=none

Optimization for frag42-conf0

0  1
   C    1.1307343370 -0.0025476620  0.0523676065 
   C    2.6383878119  0.0072780163  0.0519577686 
   O    3.2427158779  1.0795047515  0.0072854965 
   N    3.2837103512 -1.2201301319  0.1030951085 
   C    2.6200047740 -2.5141589964  0.1570083900 
   C    4.7376328522 -1.2519787851  0.1044216582 
   H    0.7622542754  1.0271868903  0.0094655495 
   H    0.7554223971 -0.4583005974  0.9723186560 
   H    0.7554217895 -0.5332446562 -0.8264844362 
   H    1.5326232625 -2.4374143016  0.1538104971 
   H    2.9307953498 -3.0278871057  1.0716765232 
   H    2.9307960878 -3.1021909308 -0.7117564524 
   H    5.1773794276 -0.2524233350  0.0627779152 
   H    5.0773686379 -1.8218383692 -0.7656056166 
   H    5.0773691052 -1.7474947460  1.0188345943 



