%chk=frag12-conf0.chk
#B3LYP/6-31G* Integral=(Grid=UltraFine) freq Opt pop=none

Optimization for frag12-conf0

1  1
   C    1.0551571754  0.3598252690 -0.4517877075 
   N    2.5113464585  0.3839017131 -0.4746262186 
   C    3.1844289139  1.5189416107  0.1452560115 
   C    3.1778086384 -0.6747774572 -1.0672823358 
   O    2.6155585216 -1.6184973700 -1.6295949033 
   C    4.7027593173 -0.6650442578 -1.0173729193 
   N    5.3084367015 -1.4470708417 -2.1631791036 
   H    4.9179936336 -2.4034889764 -2.1249019571 
   H    4.9271849482 -1.0663275002 -3.0418108383 
   C    6.7923428208 -1.4330492106 -2.1813377876 
   C    7.3664896146 -2.1037914159 -0.9427453174 
   C    8.7727018938 -2.4694172587 -1.3766133581 
   C    8.6165210081 -2.9106313460 -2.8270363632 
   C    7.3507860018 -2.2275418792 -3.3567473599 
   H    0.6507154304  1.2619503185  0.0147777247 
   H    0.7252144921 -0.5179770109  0.1120598829 
   H    0.6825649601  0.2845717301 -1.4773272740 
   H    2.4723421585  2.2350639385  0.5603384687 
   H    3.7892830704  2.0239286708 -0.6142524021 
   H    3.8417199014  1.1522508267  0.9390577562 
   H    5.0129738637 -1.1503015777 -0.0876459470 
   H    5.1119049579  0.3420192347 -1.0931074522 
   H    7.1088364956 -0.3847341609 -2.2506035620 
   H    6.8022841682 -3.0054591984 -0.6761966961 
   H    7.3770149268 -1.4354298326 -0.0757578890 
   H    9.2048725962 -3.2534629665 -0.7479008153 
   H    9.4254570882 -1.5904985430 -1.3175279649 
   H    8.4960883850 -3.9986748893 -2.8786839980 
   H    9.5011111636 -2.6501414187 -3.4170317766 
   H    6.6478895941 -2.9800807704 -3.7311042355 
   H    7.5914030707 -1.5623674444 -4.1940372022 



