%chk=frag44-conf0.chk
#B3LYP/6-31G* Integral=(Grid=UltraFine) freq Opt pop=none

Optimization for frag44-conf0

0  1
   C    1.0260536218 -0.0835199915 -0.0254395817 
   C    2.5411415505 -0.1005734708  0.0133881913 
   N    3.1238427461  0.4321680377 -1.1995725532 
   C    4.4493129673  0.5601874621 -1.4910505148 
   C    5.4723489762  0.1156529045 -0.4789203931 
   O    4.7871193652  1.0361011163 -2.5746243053 
   H    0.6191026750 -0.4920465800  0.9047065677 
   H    0.6477099725 -0.6838192399 -0.8592450507 
   H    0.6477099891  0.9366186419 -0.1475376032 
   H    2.9026289599 -1.1261969585  0.1413525555 
   H    2.9026290005  0.4991159521  0.8552022912 
   H    2.5155054489  0.7584365916 -1.9424305559 
   H    5.0338518834 -0.2857490619  0.4350011560 
   H    6.0953253915  0.9726233194 -0.2081924980 
   H    6.0953268860 -0.6635117672 -0.9267958667 



