%chk=frag13-conf0.chk
#B3LYP/6-31G* Integral=(Grid=UltraFine) freq Opt pop=none

Optimization for frag13-conf0

1  1
   C    1.0346718463  0.0563229335  0.0460899243 
   N    2.4896358392  0.0956856893  0.0630297677 
   C    3.2081033848 -1.0173746030 -0.5523867721 
   C    3.1196761340  1.1668075982  0.6895024159 
   O    2.5378456281  2.1188955704  1.2042631916 
   C    4.6420869683  1.1224677958  0.7087147574 
   N    5.2927586504  2.3437857717  1.3308366633 
   H    4.9248031174  3.1840032386  0.8595388898 
   H    4.9189926654  2.4304148799  2.2890677556 
   C    6.7973295719  2.2807302863  1.3378125264 
   C    7.3502141442  2.2472819381 -0.0921940537 
   C    7.0764462015  3.5480074044 -0.8407053620 
   C    7.6937001129  4.7309967794 -0.1036661810 
   C    7.2682312986  4.8048953182  1.3629910910 
   C    7.3908806967  3.4693141014  2.0985179164 
   H    0.6689166053 -0.8323662428 -0.4761132712 
   H    0.6579681629  0.9512773342 -0.4568860056 
   H    0.6709979126  0.0443649571  1.0773205980 
   H    2.5252783477 -1.7517759228 -0.9851825996 
   H    3.8268908036 -1.5035783635  0.2074345958 
   H    3.8582934850 -0.6288110459 -1.3422958875 
   H    4.9799968823  1.0767364740 -0.3260587792 
   H    4.9782216463  0.2612517173  1.2910057563 
   H    7.0528392777  1.3544997599  1.8653848449 
   H    6.9606263297  1.3990987414 -0.6622312708 
   H    8.4347305724  2.0849250924 -0.0447160654 
   H    5.9980714734  3.7043260253 -0.9613099268 
   H    7.4954281223  3.4836860057 -1.8509680105 
   H    7.4214644393  5.6632056235 -0.6115593784 
   H    8.7864295987  4.6499289923 -0.1590693569 
   H    6.2348610357  5.1626322319  1.4266609359 
   H    7.8903074458  5.5511770162  1.8730682169 
   H    6.9503613439  3.5534559397  3.0986564565 
   H    8.4601159258  3.2664789861  2.2526417645 



