%chk=frag23-conf0.chk
#B3LYP/6-31G* Integral=(Grid=UltraFine) freq Opt pop=none

Optimization for frag23-conf0

0  1
   C    1.1358623252 -0.0791416001  0.0787682458 
   N    2.5887528128 -0.0778753312  0.0679781911 
   C    3.2726683024  0.2957973937 -1.1606939954 
   C    3.2551014534 -0.4463799686  1.2381637219 
   O    2.6519447022 -0.8103782967  2.2499209467 
   C    4.7814366959 -0.4167306543  1.1823947861 
   N    5.3987396989 -0.8686383831  2.4309452863 
   S    7.0512721487 -0.7780061768  2.5940751325 
   C    7.6288366041 -1.9705877310  1.4030089144 
   O    7.4695498008  0.5323354076  2.1517721630 
   O    7.3707100427 -1.2812074078  3.9111670244 
   H    0.7305095197  0.2035842074 -0.8964318564 
   H    0.7848115614  0.6297158009  0.8347046035 
   H    0.7805012599 -1.0806038397  0.3392886470 
   H    2.5629508947  0.5337390012 -1.9565999262 
   H    3.9003771988 -0.5391507938 -1.4856568986 
   H    3.9052575828  1.1669002711 -0.9699978188 
   H    5.0991320480  0.6071386265  0.9667235880 
   H    5.0900606925 -1.0919797587  0.3803324510 
   H    4.9071761300 -1.5872852062  2.9666339692 
   H    7.3125910798 -1.6670698672  0.4038164564 
   H    7.2325296686 -2.9535152917  1.6621817356 
   H    8.7201912788 -1.9846437590  1.4458945125 



