%chk=frag5-conf0.chk
#B3LYP/6-31G* Integral=(Grid=UltraFine) freq Opt pop=none

Optimization for frag5-conf0

0  1
   C    1.0841451110  0.0851315525  0.0017731142 
   C    2.5858510240  0.1495066233 -0.0434553383 
   O    3.1968667889  0.9904321630 -0.6937801132 
   N    3.1947177109 -0.8330778539  0.6980200987 
   C    4.6351522579 -0.9375550746  0.7586968329 
   C    5.0797645186 -2.1488665373  1.5389750446 
   C    6.0813687277 -2.0430598733  2.5157484148 
   C    6.5139315848 -3.1723058780  3.2170403147 
   C    5.9615250244 -4.4225234485  2.9397348426 
   C    4.9784692840 -4.5392549337  1.9611025342 
   Cl    4.3056742282 -6.0811028712  1.6004336432 
   C    4.5391035799 -3.4154605055  1.2625148304 
   H    0.6623496849  0.9034677864 -0.5882491564 
   H    0.7362862030  0.1784146795  1.0341494972 
   H    0.7438315226 -0.8652343279 -0.4193584117 
   H    2.6329147578 -1.4300268589  1.2903468647 
   H    5.0150750365 -0.0135314608  1.2101815222 
   H    5.0291354720 -0.9936957067 -0.2628486853 
   H    6.5389776292 -1.0795336058  2.7350410518 
   H    7.2880125111 -3.0784879764  3.9752789628 
   H    6.3066535506 -5.2991380853  3.4811517749 
   H    3.7776528889 -3.5258050777  0.4935896061 



