%chk=frag27-conf1.chk
#B3LYP/6-31G* Integral=(Grid=UltraFine) freq Opt pop=none

Optimization for frag27-conf1

1  1
   C    3.9237310574 -2.2505871778  2.1368531853 
   C    4.6707180088 -1.1987596333  1.3660101340 
   O    5.7304588335 -1.4006887215  0.7680090250 
   N    4.1564599714  0.0668928985  1.4874918206 
   C    4.6027455986  1.1391406668  0.6332391092 
   C    5.1450782161  2.3112986735  1.4131127787 
   C    4.5190888506  3.5553107873  1.1817700034 
   C    4.9662181580  4.7160359058  1.8040505786 
   Cl    4.2202153827  6.2196179140  1.4412020705 
   C    6.0230619547  4.6592255868  2.6987960820 
   C    6.6510716480  3.4372252958  2.9527715458 
   C    6.2501928093  2.2496862659  2.2997611428 
   C    7.0280648318  0.9914078439  2.6148504620 
   N    7.7021105071  0.3807909392  1.4516919036 
   H    7.0260637398 -0.1532415880  0.8728089220 
   H    8.1735254142  1.0773601025  0.8655015930 
   H    8.3948416675 -0.3155882469  1.7475183919 
   H    4.3252573363 -3.2389272509  1.8983899103 
   H    2.8605272164 -2.2343561237  1.8786183427 
   H    4.0432831798 -2.0615816195  3.2071698211 
   H    3.2848006241  0.1995912145  1.9932614689 
   H    3.7296460735  1.4282536978  0.0370229247 
   H    5.3575761987  0.8035405720 -0.0849404146 
   H    3.6751914765  3.6266234846  0.4950068789 
   H    6.3662694762  5.5632420667  3.1978779782 
   H    7.4687186339  3.4355802849  3.6746690708 
   H    6.4017160449  0.2287396144  3.0846918371 
   H    7.8367389315  1.2155937341  3.3208020544 



