%chk=frag22-conf0.chk
#B3LYP/6-31G* Integral=(Grid=UltraFine) freq Opt pop=none

Optimization for frag22-conf0

0  1
   C    1.0846825687  2.9576888245  0.2861049474 
   N    2.5503581921  2.7809307947  0.3213043090 
   S    3.0222745646  1.2741228926  0.9440633085 
   O    2.5127050951  1.2126764900  2.2973574101 
   O    2.6276710254  0.2735133336 -0.0258559551 
   C    4.8272501164  1.3723420136  0.9557031442 
   C    5.3106843846  2.5483443017  1.7701967437 
   C    5.0270052162  2.6469109872  3.1410312004 
   C    5.4395241282  3.7541070384  3.8810980162 
   C    6.1900316531  4.7552782918  3.2739594837 
   C    6.5317232165  4.6455791512  1.9276232365 
   C    6.0916256798  3.5517281902  1.1769258122 
   H    0.8516573976  3.9115237988 -0.1950811216 
   H    0.6853790873  2.9910967175  1.3043601538 
   H    0.6008294720  2.1581559550 -0.2807254063 
   H    3.0004478206  3.5431234984  0.8344001081 
   H    5.1466955157  1.4384081335 -0.0899765448 
   H    5.2051516385  0.4343427100  1.3738460622 
   H    4.4650096057  1.8665490796  3.6526996333 
   H    5.1744027285  3.8283697527  4.9329207380 
   H    6.5173537589  5.6140505556  3.8542050300 
   H    7.1435744258  5.4150491304  1.4627972885 
   H    6.3723093079  3.4916824271  0.1267292121 



