%chk=frag7-conf0.chk
#B3LYP/6-31G* Integral=(Grid=UltraFine) freq Opt pop=none

Optimization for frag7-conf0

0  1
   C    1.1461426482  0.0110718799  0.1078464585 
   C    2.6474308560  0.0655734011  0.0467594763 
   O    3.2544840518  0.7331118891 -0.7835419965 
   N    3.2628550777 -0.7099213105  0.9987469862 
   C    4.7034917653 -0.7806891553  1.0780307180 
   C    5.1561694542 -1.7511862925  2.1371028952 
   C    6.0058044375 -1.3397437002  3.1762535401 
   C    6.4398234805 -2.2502808430  4.1453026885 
   C    6.0375518342 -3.5828657456  4.0791660695 
   C    5.2019058973 -3.9933962216  3.0484773997 
   F    4.8180202708 -5.2746782479  2.9796572583 
   C    4.7591752555 -3.0956857213  2.0830185533 
   H    0.7237455372  0.6572672822 -0.6668222729 
   H    0.7989211871  0.3584072112  1.0846711629 
   H    0.8060716312 -1.0139257629 -0.0644552606 
   H    2.7068858831 -1.1856165835  1.6971358888 
   H    5.0785908756  0.2301170052  1.2769153911 
   H    5.0969565926 -1.0883248391  0.1019383213 
   H    6.3423821561 -0.3058797511  3.2363889029 
   H    7.0957205815 -1.9204923066  4.9475095080 
   H    6.3728607917 -4.3030047150  4.8185036475 
   H    4.1103143998 -3.4546715709  1.2890478934 



