%chk=frag7-conf1.chk
#B3LYP/6-31G* Integral=(Grid=UltraFine) freq Opt pop=none

Optimization for frag7-conf1

0  1
   C    1.0616436359  0.1420016139  1.5425944859 
   C    2.5486373003  0.2502957378  1.7291216947 
   O    3.0563339386  1.0959986033  2.4584207060 
   N    3.2647658341 -0.6791865158  1.0124057959 
   C    4.7067488367 -0.7642864180  1.0945989821 
   C    5.1686011846 -1.7503415940  2.1398951894 
   C    4.8291545769 -1.5809150726  3.4936288969 
   C    5.2852398922 -2.4715281289  4.4689490865 
   C    6.1095650953 -3.5323649329  4.1065650305 
   C    6.4602722387 -3.6973255216  2.7723276195 
   F    7.2682635326 -4.7077416584  2.4247535368 
   C    5.9954885306 -2.8262282851  1.7897504122 
   H    0.5618415877  0.8745256799  2.1832911540 
   H    0.7193211345 -0.8580626406  1.8220973809 
   H    0.8042486678  0.3490974296  0.5008059167 
   H    2.7738130084 -1.3893212170  0.4865888261 
   H    5.1354828785  0.2217333397  1.3049822228 
   H    5.0540010494 -1.0697833694  0.1009153446 
   H    4.2125883034 -0.7386452704  3.8037654819 
   H    5.0043279469 -2.3251542191  5.5088486187 
   H    6.4860684259 -4.2229443543  4.8537284931 
   H    6.2995631592 -2.9929668521  0.7607809407 



