%chk=frag29-conf1.chk
#B3LYP/6-31G* Integral=(Grid=UltraFine) freq Opt pop=none

Optimization for frag29-conf1

0  1
   C    1.0062158672  1.0616368766 -1.0102711450 
   C    2.4888821629  1.1980192777 -1.2110923876 
   O    3.0053795850  1.1941297965 -2.3235836724 
   N    3.1982391128  1.3199940150 -0.0415159697 
   C    4.6443892704  1.4214893239 -0.0310274846 
   C    5.1598531183  2.8437405478 -0.0195286666 
   C    4.9188362923  3.6937133216 -1.0933617991 
   C    5.5277259779  4.9416448526 -1.0977314807 
   Cl    5.2943553722  6.0008666516 -2.4337223346 
   C    6.3437223230  5.3302665402 -0.0467915694 
   C    6.5024218692  4.4414929902  0.9974634538 
   N    5.9305576489  3.2168194684  1.0357755884 
   H    0.5094642853  1.0191568928 -1.9840485800 
   H    0.6213834523  1.9219069712 -0.4565996539 
   H    0.7918487015  0.1387032439 -0.4648150943 
   H    2.7120976012  1.3911200555  0.8423072476 
   H    5.0644823756  0.8978959375 -0.8972077676 
   H    4.9884872946  0.8976794803  0.8679087216 
   H    4.2964403949  3.3792797036 -1.9245940902 
   H    6.8464694768  6.2898455530 -0.0417871405 
   H    7.1241577945  4.6900554771  1.8532663701 



