%chk=frag0-conf0.chk
#B3LYP/6-31G* Integral=(Grid=UltraFine) freq Opt pop=none

Optimization for frag0-conf0

0  1
   C    1.1920764111  0.4941805661 -0.5275830490 
   N    2.6265431992  0.3497009907 -0.4728046317 
   C    3.2534013054 -0.7365485706 -1.0468125956 
   O    2.6366258457 -1.6460071316 -1.6022932470 
   C    4.7902216247 -0.7562313790 -0.9095624289 
   H    5.1765507569  0.2647050756 -1.0108142866 
   C    5.1649784701 -1.3280605910  0.4541744423 
   N    5.3355723297 -1.5460466215 -2.0104289172 
   C    6.6790822002 -1.6510072775 -2.2598986090 
   C    7.0358890855 -2.4747052920 -3.4677710404 
   O    7.5409591606 -1.1143944335 -1.5676652144 
   H    0.9151045589  1.4558910433 -0.0891289654 
   H    0.7287072508 -0.3194811226  0.0371191519 
   H    0.8561471496  0.4487063592 -1.5675320689 
   H    3.1795706788  1.1144693406 -0.1067249256 
   H    4.7523101456 -0.7184516785  1.2643657732 
   H    6.2497265559 -1.3719172643  0.5916009429 
   H    4.7781126318 -2.3466383300  0.5719369412 
   H    4.6607906187 -2.0005511412 -2.6191395062 
   H    6.1518070478 -2.9016740386 -3.9484003256 
   H    7.6960249555 -3.2921470053 -3.1642947394 
   H    7.5520585944 -1.8359599950 -4.1900327397 



