%chk=frag14-conf0.chk
#B3LYP/6-31G* Integral=(Grid=UltraFine) freq Opt pop=none

Optimization for frag14-conf0

1  1
   C    3.2160045649 -0.6033680832 -2.6635982345 
   N    2.5108552936  0.2574002115 -1.7267321146 
   C    1.0574203771  0.3130995104 -1.8335737222 
   C    3.1300884645  0.9563466312 -0.7071879938 
   O    2.5158039901  1.5981486942  0.1534757695 
   C    4.6737287861  0.9404679683 -0.6140425820 
   H    5.0563581456 -0.0503093745 -0.8595492564 
   N    5.0715770157  1.1800033704  0.8166189881 
   H    6.0703906802  1.3609933154  0.9537069008 
   H    4.5226640901  1.9800134175  1.1735925816 
   H    4.7940260718  0.3822157946  1.4023626256 
   C    5.2644780765  2.0448523814 -1.4981691314 
   C    6.8089348376  2.0751816803 -1.6206456718 
   C    7.4310971589  0.7553125696 -2.1051393825 
   C    7.0276203321  0.4243971745 -3.5386146623 
   C    7.4116529301  1.5481571183 -4.4961870534 
   C    6.8982461085  2.9122694441 -4.0372941319 
   C    7.2494623930  3.2025640322 -2.5759958621 
   H    2.5320009271 -1.1097908137 -3.3473606264 
   H    3.7875238880 -1.3509507198 -2.1069810640 
   H    3.8944204644  0.0166651490 -3.2474281913 
   H    0.7069035571 -0.2187201123 -2.7228370895 
   H    0.7426789150  1.3587352692 -1.8992541556 
   H    0.6146066361 -0.1394123279 -0.9417434402 
   H    4.9290774825  3.0217645360 -1.1215722957 
   H    4.8161203890  1.9642957381 -2.4933263763 
   H    7.2260138208  2.3025068684 -0.6317127956 
   H    7.1770853878 -0.0728828193 -1.4366066601 
   H    8.5253403037  0.8459584243 -2.0659345970 
   H    5.9510955785  0.2546322066 -3.5944138809 
   H    7.5021602349 -0.5114938752 -3.8529973421 
   H    7.0230311330  1.3267875984 -5.4967437437 
   H    8.5042501634  1.5853371471 -4.5795164764 
   H    5.8121239689  2.9594848594 -4.1764495368 
   H    7.3218181036  3.6946645289 -4.6770656617 
   H    6.8033193534  4.1559583070 -2.2697994442 
   H    8.3372756751  3.3291142149 -2.4959713550 



