%chk=frag48-conf0.chk
#B3LYP/6-31G* Integral=(Grid=UltraFine) freq Opt pop=none

Optimization for frag48-conf0

0  1
   C    1.1842686302 -0.3284051079  1.5989009304 
   N    2.6096103337 -0.2592943483  1.3945995324 
   C    3.2498928578  0.9282294082  1.1024342857 
   O    2.6609711667  1.9951964426  0.9300118050 
   C    4.7833494481  0.8250510616  0.9990463831 
   H    5.1172465403 -0.1900178524  1.2430751022 
   C    5.2390250127  1.1899788359 -0.4283710070 
   C    4.7134620528  0.2593053285 -1.4931940047 
   C    3.5013975671  0.5351545772 -2.1427205776 
   C    2.9734975584 -0.3670623642 -3.0660859329 
   C    3.6622122013 -1.5404688513 -3.3649976243 
   C    4.8869849913 -1.8041093143 -2.7539636341 
   C    5.4091642979 -0.9113634961 -1.8175187657 
   N    5.4420251300  1.8036264293  1.9379401565 
   S    5.1982529091  1.5011841158  3.5853378411 
   C    6.2076107798  2.7778159547  4.3103083647 
   O    3.8192588025  1.7964593086  3.8838981792 
   O    5.7804719778  0.2110929987  3.8841087217 
   H    0.9109696710 -1.3660487282  1.8096569258 
   H    0.6668197995  0.0154285165  0.6995540730 
   H    0.9061233889  0.3051740243  2.4454165159 
   H    3.1441184136 -1.1153182019  1.4687709258 
   H    6.3370333794  1.1841271434 -0.4673036359 
   H    4.9509378106  2.2213609460 -0.6741667631 
   H    2.9501085669  1.4486341176 -1.9219640884 
   H    2.0217914133 -0.1557007038 -3.5470684319 
   H    3.2456120634 -2.2481322412 -4.0767896263 
   H    5.4340767792 -2.7093226576 -3.0038593255 
   H    6.3625204455 -1.1357538656 -1.3441825534 
   H    5.1191754794  2.7487982008  1.7099572161 
   H    5.8696674309  3.7464155130  3.9340070966 
   H    7.2533447800  2.6019763826  4.0547761753 
   H    6.0735628397  2.7427711293  5.3937740212 



