%chk=frag25-conf1.chk
#B3LYP/6-31G* Integral=(Grid=UltraFine) freq Opt pop=none

Optimization for frag25-conf1

0  1
   C    1.1257962837  0.0675133328  0.3179747809 
   C    2.6443987026  0.0371625179  0.1047442200 
   C    3.3064479619 -0.4292033591  1.4092853629 
   C    3.0487619250 -0.8454407452 -1.1206371514 
   H    2.6601664790 -1.8462081209 -0.9542706562 
   N    2.3570025176 -0.3118102165 -2.3309954710 
   S    2.5735149809 -1.0173580126 -3.8397454203 
   C    1.8917293074 -2.6535792171 -3.6650743071 
   O    1.7157873267 -0.2759246001 -4.7363029860 
   O    3.9885388192 -1.1472416015 -4.0971566851 
   C    4.5834508230 -0.7952372601 -1.2682585117 
   O    5.1202583705  0.2970622609 -1.4893411934 
   N    5.3308996704 -1.9559884668 -1.0793051229 
   C    4.8199722596 -3.3055151794 -0.8885889378 
   C    6.7804733935 -1.8705359143 -1.2027708208 
   H    0.8737813076  0.5843067116  1.2512681955 
   H    0.7132855476 -0.9450098152  0.3731554490 
   H    0.6222015087  0.6035694644 -0.4922072034 
   H    2.9704297502  1.0713133996 -0.0745591617 
   H    3.0429085819 -1.4660999484  1.6408566715 
   H    2.9809892451  0.1958286996  2.2494936180 
   H    4.3968528023 -0.3510301918  1.3626593411 
   H    2.5003678141  0.6978961290 -2.4359593983 
   H    0.9408518778 -2.6020657470 -3.1348500010 
   H    2.6106716281 -3.2838097046 -3.1396132624 
   H    1.7283452666 -3.0514046770 -4.6711648563 
   H    3.7490042596 -3.3565420798 -0.7161657145 
   H    5.3190736761 -3.7492533179 -0.0215980223 
   H    5.0555480417 -3.8947272480 -1.7801413010 
   H    7.1386211832 -0.8439815528 -1.3072927061 
   H    7.0946819692 -2.4468097916 -2.0784126592 
   H    7.2329593764 -2.3053525068 -0.3053956363 



