%chk=frag5-conf2.chk
#B3LYP/6-31G* Integral=(Grid=UltraFine) freq Opt pop=none

Optimization for frag5-conf2

0  1
   C    1.0338322922 -0.7581475268 -0.3533874094 
   C    2.5244871593 -0.8725869651 -0.5156215297 
   O    3.0578284065 -0.9896813944 -1.6133466464 
   N    3.2113921960 -0.8404821569  0.6734411766 
   C    4.6524749467 -0.9468752216  0.7306921392 
   C    5.0758727339 -2.1178441324  1.5800766175 
   C    4.7536092778 -3.4291923106  1.1950941689 
   C    5.1455202671 -4.5180874182  1.9768967655 
   C    5.8572611645 -4.3083282590  3.1573356954 
   C    6.1841727193 -3.0105702201  3.5439833465 
   Cl    7.0517541138 -2.7481124403  5.0070912332 
   C    5.8073496947 -1.9193786438  2.7598762157 
   H    0.5586010232 -0.7689845384 -1.3386908150 
   H    0.7823610887  0.1809352289  0.1468589913 
   H    0.6569965531 -1.6036741875  0.2283672391 
   H    2.7049606893 -0.7499823837  1.5440041750 
   H    5.0162552893 -0.0070287641  1.1605311748 
   H    5.0880222888 -1.0400542446 -0.2697366571 
   H    4.1939499205 -3.6049043935  0.2769099346 
   H    4.8948162583 -5.5290972747  1.6649413565 
   H    6.1538204729 -5.1569658265  3.7677239370 
   H    6.0857103686 -0.9150455955  3.0700046862 



