%chk=frag1-conf2.chk
#B3LYP/6-31G* Integral=(Grid=UltraFine) freq Opt pop=none

Optimization for frag1-conf2

0  1
   C    3.1903282112  1.3966059822  0.4810166796 
   C    4.4152499283  1.9297116515 -0.2183398389 
   O    4.7186418569  3.1172254505 -0.0838792899 
   N    5.1627720961  1.0438655444 -0.9838500123 
   C    6.4079061522  1.5344926133 -1.5746310692 
   C    4.7607932601 -0.3568223350 -1.2708237833 
   H    3.6710781591 -0.4241546226 -1.2748942633 
   C    5.2131124464 -1.3294931155 -0.1775645849 
   C    5.2446208463 -0.8588954360 -2.6549477446 
   O    6.2489629132 -1.5714513656 -2.7432254297 
   N    4.5493887787 -0.4342605474 -3.7841342186 
   C    3.4165691431  0.4816204668 -3.7943386753 
   C    4.9720601299 -0.9222610509 -5.0868299739 
   H    2.6566665377  2.2279489126  0.9520671672 
   H    3.4830457314  0.6959591544  1.2654839637 
   H    2.5010407543  0.9283786467 -0.2231093305 
   H    6.6558575046  2.5454390588 -1.2378637813 
   H    6.3007140733  1.5682641360 -2.6626404847 
   H    7.2304477044  0.8686678331 -1.2996743399 
   H    4.8857149356 -2.3469808061 -0.4258453812 
   H    4.7775502725 -1.0764865177  0.7928094636 
   H    6.3009999653 -1.3471024032 -0.0637790696 
   H    3.1157570768  0.8177282223 -2.8040807555 
   H    2.5666364179 -0.0245678228 -4.2617183097 
   H    3.6850481087  1.3613045340 -4.3865157521 
   H    5.8390105620 -1.5846179155 -5.0262411257 
   H    5.2248608887 -0.0672605777 -5.7201705614 
   H    4.1414393646 -1.4765528031 -5.5337516914 



