%chk=frag18-conf0.chk
#B3LYP/6-31G* Integral=(Grid=UltraFine) freq Opt pop=none

Optimization for frag18-conf0

1  1
   C    7.7956012005  0.7245933965 -0.2505573264 
   C    6.8040470094 -0.3950878548 -0.1102752430 
   O    6.9991662566 -1.5275728623 -0.5426834272 
   N    5.6691854859 -0.0431976378  0.5873473540 
   C    4.6040328703 -0.9928602060  0.8131591457 
   C    5.0327000382 -2.1435600761  1.6934924841 
   C    5.9530441238 -1.9750038930  2.7322255541 
   C    6.3784906962 -3.0708464156  3.4691941327 
   C    5.8717858397 -4.3263795783  3.1681222398 
   N    4.9697381511 -4.4841086295  2.1744879708 
   C    4.4777804219 -5.8278626110  1.8306869665 
   C    4.5369140292 -3.4243866308  1.4521021241 
   H    8.7060783993  0.3505014070 -0.7263678292 
   H    8.0535542916  1.1193913783  0.7366782124 
   H    7.3687221959  1.5188098809 -0.8680305672 
   H    5.5546985382  0.9136612678  0.9008780854 
   H    4.2802829378 -1.3630317691 -0.1674865007 
   H    3.7664148409 -0.4631158532  1.2782020271 
   H    6.3827038328 -0.9955718889  2.9401388744 
   H    7.1202911878 -2.9464728013  4.2545347237 
   H    6.1916011398 -5.2106698906  3.7111374390 
   H    4.9722857447 -6.5785795505  2.4514143217 
   H    4.7087896343 -6.0085481139  0.7773552107 
   H    3.3991796810 -5.8451110045  2.0059248025 
   H    3.8151377198 -3.6277661417  0.6654518585 



