%chk=frag31-conf2.chk
#B3LYP/6-31G* Integral=(Grid=UltraFine) freq Opt pop=none

Optimization for frag31-conf2

1  1
   C    7.6926957508  0.3060449334 -1.3778565610 
   C    6.6942246691  1.1163804176 -0.6072886447 
   O    6.8013724355  2.3295684590 -0.4647357330 
   N    5.7251319341  0.3636151286  0.0281577871 
   C    4.6390608209  0.9810068203  0.7775074902 
   C    5.0404414021  2.1800640779  1.6198522738 
   C    4.4234328762  3.4212622590  1.3693435528 
   C    4.8491528045  4.5660337778  2.0275336568 
   C    5.8668693211  4.4661193672  2.9588540555 
   C    6.4459529279  3.2300167708  3.2045076106 
   N    6.0482894409  2.1165892843  2.5433368830 
   C    6.7940715958  0.8659059663  2.7889242469 
   H    8.5146391993  0.9570513941 -1.6904352320 
   H    7.2194404660 -0.1291533305 -2.2593816562 
   H    8.1011602993 -0.4803951882 -0.7364444165 
   H    5.5532941205 -0.5619958609 -0.3546577227 
   H    4.2149436873  0.2118388093  1.4327964082 
   H    3.8615254981  1.2519450676  0.0537561144 
   H    3.6476481463  3.5090835845  0.6096376292 
   H    4.4098076238  5.5335742037  1.7907368222 
   H    6.2270125870  5.3524101090  3.4756887221 
   H    7.2549793547  3.1287275483  3.9224700956 
   H    7.4805265799  0.9966915110  3.6290938177 
   H    7.3905049963  0.6328682256  1.9063669034 
   H    6.0832814550  0.0713338593  3.0241715105 



