%chk=frag2-conf0.chk
#B3LYP/6-31G* Integral=(Grid=UltraFine) freq Opt pop=none

Optimization for frag2-conf0

0  1
   C    0.5534190510 -0.3233754771 -0.2678065313 
   N    1.9980670022 -0.0645336920 -0.1680960070 
   C    2.3486761869  1.0781793326  0.6737201838 
   C    2.8251009039 -0.9060634482 -0.9188494019 
   O    2.3001665255 -1.8378956993 -1.5545320291 
   C    4.4065518173 -0.7544005427 -1.0897142969 
   H    4.6475244272  0.2907555993 -1.2963233445 
   C    5.2477787373 -1.2793930120  0.0904740016 
   C    6.8121468432 -1.3627235154 -0.0664825503 
   C    7.5350738932 -0.2187463977 -0.8013653407 
   C    7.4830469485  1.0981785397 -0.0425018650 
   C    8.0682788820  0.9627935378  1.3586866406 
   C    7.5165201123 -0.2363713565  2.1276318356 
   C    7.4689477475 -1.5362842320  1.3189458116 
   N    4.8432786548 -1.5506328835 -2.3148097327 
   H    5.8428137218 -1.8078923345 -2.3943703183 
   H    4.3825819429 -2.4757387013 -2.3484476385 
   C    4.5601391656 -0.9178950113 -3.6704021887 
   C    5.2601104842 -1.6506741212 -4.8404335386 
   O    5.0432945753 -1.1794733742 -5.9876664795 
   O    5.9869933568 -2.5997684774 -4.4295516319 
   H   -0.0321304780  0.3248615969  0.3947363787 
   H    0.3334278216 -1.3637689387 -0.0121877596 
   H    0.2387668732 -0.1306198673 -1.2993556698 
   H    1.4761514812  1.7415994547  0.7814750031 
   H    3.1626178925  1.6585716313  0.2436503485 
   H    2.6052303398  0.7247707056  1.6771948391 
   H    4.9136050653 -2.3024902684  0.3233452179 
   H    4.9928317157 -0.6909928680  0.9762799330 
   H    7.0302769552 -2.2798348715 -0.6336307665 
   H    7.1548337593 -0.0828293503 -1.8176739855 
   H    8.5942776870 -0.4974497831 -0.9213143163 
   H    6.4477568861  1.4486089952  0.0160662656 
   H    8.0460288527  1.8617408544 -0.5940877168 
   H    7.8604668835  1.8803416113  1.9226527373 
   H    9.1605978874  0.8828119215  1.2910638118 
   H    6.5071775990  0.0073772764  2.4750698351 
   H    8.1219526558 -0.3941640815  3.0279213125 
   H    6.9295988712 -2.2996993527  1.8923450375 
   H    8.4917425479 -1.9165044844  1.1911870624 
   H    4.9569329332  0.0988194215 -3.6182310874 
   H    3.4772693739 -0.9149102796 -3.8048858548 



