%chk=frag2-conf1.chk
#B3LYP/6-31G* Integral=(Grid=UltraFine) freq Opt pop=none

Optimization for frag2-conf1

0  1
   C    2.7945719921 -1.0492651264 -0.8746692310 
   N    2.4802055284  0.0029426932  0.1078219839 
   S    2.9213663887 -0.3496073160  1.7075287937 
   O    2.4550888029  0.7715882333  2.4977162106 
   O    2.4134148609 -1.6836743463  1.9255129193 
   C    4.8000372484 -0.3089681782  1.6613272386 
   H    5.1070515408 -1.0836892674  0.9517841195 
   C    5.2434545783  1.0643651683  1.1412696638 
   N    5.5324918906 -0.5287529172  2.9756978459 
   S    5.2582208516 -2.0570745580  3.6502780580 
   C    6.3233771401 -2.0016459749  5.0677057014 
   O    3.9090212472 -2.0612753462  4.1495416902 
   O    5.7560155960 -3.0393778460  2.7132811049 
   H    2.4124453973 -0.7474767491 -1.8528131558 
   H    2.3201193063 -1.9972611578 -0.6078270018 
   H    3.8754704261 -1.1824918910 -0.9594852787 
   H    1.4871599895  0.2534384834  0.1127543204 
   H    4.7907823923  1.3035864802  0.1744284516 
   H    6.3311928455  1.1026628593  1.0183669768 
   H    4.9643789347  1.8598651075  1.8422728771 
   H    5.2517721997  0.1969263496  3.6403013387 
   H    6.0125070119 -1.1563468100  5.6867506765 
   H    7.3598601748 -1.9015879931  4.7488242863 
   H    6.1806107114 -2.9293179818  5.6268343805 



