%chk=frag17-conf1.chk
#B3LYP/6-31G* Integral=(Grid=UltraFine) freq Opt pop=none

Optimization for frag17-conf1

0  1
   C   -2.4206929207 -1.3308273554  4.9531865120 
   C   -1.1838539839 -0.7263340354  4.7489295006 
   C   -2.4977979660 -2.7105965614  4.8799710274 
   C   -0.2419719994 -2.8899898529  4.4223766327 
   C   -0.0592344441 -1.5128788948  4.4816818237 
   C    1.2567971945  0.9452551007  2.5793573856 
   C    1.3737657070  1.2385373116  1.1083704233 
   C    1.2889897823 -0.8972417116  4.2407569885 
   N   -1.4346129894 -3.5070519447  4.6180939674 
   N    1.3923912048 -0.3836081326  2.8918354511 
   O    1.0318084955  1.8222341537  3.4107768536 
   H   -3.3055748940 -0.7380629778  5.1633872986 
   H   -1.0989469290  0.3583974838  4.7972002029 
   H   -3.4456577301 -3.2216775417  5.0335206985 
   H    0.5913894773 -3.5568873882  4.2080106735 
   H    0.4037666023  1.0764454603  0.6309663653 
   H    1.6800109148  2.2787117958  0.9672396779 
   H    2.1205952168  0.5905786753  0.6408266425 
   H    1.4735723734 -0.0996701792  4.9693155289 
   H    2.0835862160 -1.6409621239  4.3668127060 
   H    1.5452852249 -1.0518813133  2.1421802044 



