%chk=frag28-conf2.chk
#B3LYP/6-31G* Integral=(Grid=UltraFine) freq Opt pop=none

Optimization for frag28-conf2

0  1
   C    1.0814461039  0.4072691459 -1.1619284118 
   C    2.5774758837  0.5318948087 -1.2489786552 
   O    3.1346993491  1.5675278114 -1.5937658443 
   N    3.2429664353 -0.6283586079 -0.9359930647 
   C    4.6879017242 -0.7419200013 -1.0241921187 
   C    5.1087399095 -1.8290164603 -1.9744422841 
   C    4.3759659590 -2.0910526686 -3.1286765207 
   N    4.6366152566 -3.0978761150 -3.9936301832 
   C    5.7132645104 -3.8631378285 -3.7341123221 
   C    6.5643087866 -3.6405461997 -2.6706940680 
   C    6.2580918691 -2.6036656565 -1.7918237582 
   Cl    7.3506537550 -2.3215868966 -0.4831156032 
   H    0.6203763718  1.3630191343 -1.4266774631 
   H    0.7841448920  0.1406940067 -0.1444289487 
   H    0.7330207241 -0.3561276542 -1.8636508964 
   H    2.7182885488 -1.4336493769 -0.6178767741 
   H    5.0074084943 -0.9739654132 -0.0034080805 
   H    5.1419940358  0.2089819359 -1.3202791988 
   H    3.5145217836 -1.4852499949 -3.4019952480 
   H    5.8808216060 -4.6808043990 -4.4290990607 
   H    7.4391206865 -4.2650427175 -2.5300234675 



