%chk=frag28-conf0.chk
#B3LYP/6-31G* Integral=(Grid=UltraFine) freq Opt pop=none

Optimization for frag28-conf0

0  1
   C    1.1145709518  0.0526583882 -0.0980417975 
   C    2.6155611169  0.1392308792 -0.0428224103 
   O    3.2129849146  0.8668237156  0.7428863121 
   N    3.2439791275 -0.6695956007 -0.9569550007 
   C    4.6876429727 -0.7686593344 -1.0018727861 
   C    5.1151556712 -1.7872356251 -2.0146844032 
   C    5.5293102123 -1.3798656219 -3.2773195959 
   N    5.8003699957 -2.2237872712 -4.2985652443 
   C    5.6692292726 -3.5436144000 -4.0572561986 
   C    5.3127708131 -4.0613516001 -2.8284047524 
   C    5.0355522369 -3.1663361400 -1.7996003301 
   Cl    4.5586171153 -3.8209368839 -0.2738003730 
   H    0.6802229620  0.7375692008  0.6354691295 
   H    0.7905498041 -0.9655635307  0.1353563075 
   H    0.7611193418  0.3338857474 -1.0940863612 
   H    2.6883088688 -1.3122802691 -1.5074587414 
   H    5.0680188337 -1.0088554556 -0.0025681196 
   H    5.0827674098  0.2246314445 -1.2485954368 
   H    5.6427739636 -0.3263095545 -3.5244132751 
   H    5.8576460966 -4.1932837189 -4.9073753893 
   H    5.2357172473 -5.1330248506 -2.6846543332 



