%chk=frag2-conf0.chk
#B3LYP/6-31G* Integral=(Grid=UltraFine) freq Opt pop=none

Optimization for frag2-conf0

0  1
   C    1.0093016902  1.0223579230  3.0456763782 
   N    2.4543086035  0.9402077260  2.7791527607 
   S    2.9036131535 -0.2929850122  1.7168441976 
   O    2.5002268441 -1.5450407497  2.3233669900 
   O    2.4039931277  0.0713095440  0.4066290991 
   C    4.7528741892 -0.2245422397  1.6888514411 
   H    5.0034999002 -0.9852221023  0.9349315247 
   C    5.2367496024  1.1167028511  1.1446891161 
   N    5.5409650914 -0.6468725577  2.9217456496 
   S    5.3188457676  0.2312959588  4.3319536144 
   C    6.3062567389 -0.6669673388  5.4998477715 
   O    5.9200795230  1.5242014040  4.1221321311 
   O    3.9347628925  0.1053695084  4.7311552902 
   H    0.8393801335  1.8401783390  3.7529199083 
   H    0.6635302664  0.1006337748  3.5231436414 
   H    0.4457899115  1.2216386846  2.1335165727 
   H    2.9177903191  0.7717084283  3.6857741193 
   H    4.8018660740  1.3197418574  0.1600462712 
   H    6.3265510229  1.1274541443  1.0349053649 
   H    4.9524066251  1.9487132963  1.7945926962 
   H    6.5244943679 -0.7892688375  2.6928356117 
   H    7.3384513903 -0.6801443021  5.1479826213 
   H    5.9043320260 -1.6753816636  5.6056600599 
   H    6.2447807672 -0.1384405491  6.4543278117 



