%chk=frag54-conf2.chk
#B3LYP/6-31G* Integral=(Grid=UltraFine) freq Opt pop=none

Optimization for frag54-conf2

0  1
   C    2.2546440606  1.3980140552  0.1062315035 
   O    2.4274035861 -0.0184833068  0.1129980210 
   C    3.1642718920 -0.5243712286  1.1527737245 
   C    4.0035320077  0.2322442443  1.9691539047 
   C    4.7128599953 -0.3752883873  3.0002301599 
   C    4.6137763854 -1.7485494190  3.2047596683 
   C    3.8087874872 -2.5452772293  2.3793156322 
   C    3.0688919276 -1.9087069477  1.3617655696 
   C    3.7164488451 -4.0476665630  2.5528400436 
   N    4.6605255089 -4.5940684333  3.5138900134 
   C    4.3411537376 -4.7577465507  4.8413349147 
   C    5.4795193044 -5.2343077560  5.7061758516 
   O    3.2293443426 -4.5306326770  5.3106731752 
   H    1.6663533671  1.6696630699 -0.7750865430 
   H    3.2103111697  1.9270260394  0.0238919032 
   H    1.7027321230  1.7215257187  0.9957274146 
   H    4.1372833032  1.2983212789  1.8300043889 
   H    5.3495924808  0.2234867160  3.6449421729 
   H    5.1790543734 -2.1829933580  4.0233431210 
   H    2.4054368392 -2.4907162806  0.7234779524 
   H    3.9588615003 -4.5256265422  1.5965090150 
   H    2.6985008158 -4.3316293670  2.8397876062 
   H    5.6235818068 -4.6806495022  3.2198835910 
   H    6.3978416562 -5.3839607626  5.1320677845 
   H    5.2007569094 -6.1837824200  6.1712894498 
   H    5.6754539872 -4.4897182786  6.4835450795 



