%chk=frag20-conf2.chk
#B3LYP/6-31G* Integral=(Grid=UltraFine) freq Opt pop=none

Optimization for frag20-conf2

1  1
   C    0.7543392181 -1.4264962673  0.7060542107 
   C    0.6616768241 -0.8765678406  1.9750338793 
   C    2.9884116650 -1.0133482218  2.2503290176 
   C    3.1512618065 -1.5622727871  0.9771436453 
   C    2.0051784515 -1.7715226412  0.2079334408 
   C    6.0710844994 -3.8521444798  0.5808970928 
   C    6.1417508125 -5.3450484276  0.7509151101 
   C    1.6445605755 -0.1084006131  4.0658392906 
   C    4.5333900452 -1.9269537926  0.5197921991 
   N    1.7681154013 -0.6763623953  2.7161362171 
   N    4.8059487343 -3.3355424404  0.7044684887 
   O    7.0594997406 -3.1663632393  0.3282279372 
   Cl    2.0797069073 -2.4720399380 -1.3691523075 
   H   -0.1486272812 -1.5837981701  0.1244270653 
   H   -0.2903593481 -0.5969886780  2.4123880863 
   H    3.8264453411 -0.8382318020  2.9172055721 
   H    5.9466781616 -5.8259129524 -0.2112259269 
   H    7.1385874748 -5.6243486404  1.1029722691 
   H    5.4062194824 -5.6895856857  1.4833707809 
   H    1.6047465801 -0.9425709248  4.7708063126 
   H    2.5103206635  0.5290898681  4.2642984390 
   H    0.7343649864  0.4936922193  4.1271553040 
   H    4.6828722954 -1.6798450947 -0.5373620391 
   H    5.2885212898 -1.3517942429  1.0701934099 
   H    4.0263719559 -3.9755456448  0.8312730193 



