%chk=frag17-conf2.chk
#B3LYP/6-31G* Integral=(Grid=UltraFine) freq Opt pop=none

Optimization for frag17-conf2

0  1
   C   -1.8879266977 -1.9652171135  5.6056528091 
   C   -0.6306268573 -1.4991921186  5.2328677177 
   C   -2.4419870377 -3.0095305443  4.8860650063 
   C   -0.6042290926 -3.1278724670  3.4936921597 
   C    0.0398717932 -2.0900480747  4.1578516960 
   C    2.3742034435  0.1857495904  2.3392794132 
   C    2.0656878948  1.4499094486  1.5847381353 
   C    1.3865379095 -1.6040879488  3.7128369808 
   N   -1.8283828497 -3.6031475067  3.8351123333 
   N    1.2796170712 -0.3962538540  2.9256608486 
   O    3.5137090683 -0.2645166218  2.4399437904 
   H   -2.4248485565 -1.5222609043  6.4388427734 
   H   -0.1767473221 -0.6756623983  5.7818746567 
   H   -3.4224209785 -3.4027166367  5.1456651688 
   H   -0.1401178390 -3.6199254990  2.6406230927 
   H    2.0983486176  2.2972352505  2.2746441364 
   H    2.8089678288  1.5930647850  0.7956241965 
   H    1.0756745338  1.3973871469  1.1229112148 
   H    2.0227363110 -1.3950445652  4.5811858177 
   H    1.9053133726 -2.3644332886  3.1169152260 
   H    0.3713301420  0.0505280904  2.8330109119 



