%chk=frag22-conf1.chk
#B3LYP/6-31G* Integral=(Grid=UltraFine) freq Opt pop=none

Optimization for frag22-conf1

0  1
   C    3.2154902627 -0.0398317285  3.2595788036 
   N    2.7254413926  1.1561835787  2.5772473176 
   S    3.0510809448  1.2885086106  0.9283777735 
   O    2.6674077246  0.0388104135  0.3085241245 
   O    2.4616014159  2.5371358401  0.4916998088 
   C    4.8562988934  1.4093386624  0.8768954001 
   C    5.3495681368  2.5551727486  1.7274950131 
   C    6.1473685153  2.3220741505  2.8589024410 
   C    6.5855426096  3.3868665942  3.6509224261 
   C    6.2444894212  4.6951906219  3.3155105356 
   C    5.4776430510  4.9419798756  2.1811905283 
   C    5.0426213825  3.8809862401  1.3882051728 
   H    2.8370474183 -0.0510221331  4.2845085950 
   H    4.3061985763 -0.0378963887  3.3100365851 
   H    2.8728197583 -0.9475445957  2.7569658555 
   H    2.8607814238  2.0445746095  3.0646183593 
   H    5.1550199556  1.5373831042 -0.1671623274 
   H    5.2478442633  0.4467986860  1.2233422076 
   H    6.4415379824  1.3121228961  3.1375322078 
   H    7.1979057836  3.1985309591  4.5296719106 
   H    6.5824900118  5.5244787412  3.9315225201 
   H    5.2145536584  5.9609843951  1.9085341630 
   H    4.4450004834  4.1047898976  0.5051173405 



