%chk=frag45-conf1.chk
#B3LYP/6-31G* Integral=(Grid=UltraFine) freq Opt pop=none

Optimization for frag45-conf1

0  1
   C    0.8755858502 -0.9120841606  0.5921304478 
   C    2.3314011926 -1.0412055403  0.9409136882 
   O    2.7301835466 -1.0569447528  2.1006458499 
   N    3.1540449849 -1.1352013008 -0.1567578147 
   C    4.5947084487 -1.2247502573 -0.0395044260 
   C    5.0937749631 -2.6494974912 -0.0888719297 
   C    4.7018696085 -3.5375162932  0.9348373013 
   C    5.2051735760 -4.8363325402  0.9953351960 
   Cl    4.7344709138 -5.8774254509  2.2805309503 
   C    6.1012776245 -5.2858326870  0.0331335613 
   C    6.4849258070 -4.4315951631 -1.0013102775 
   C    5.9898718276 -3.1217500356 -1.0621793552 
   Cl    6.5446186821 -2.1342218048 -2.3666074287 
   H    0.2824922452 -0.8729560807  1.5104484758 
   H    0.5532078527 -1.7732439734  0.0010188511 
   H    0.7135277907  0.0106287175  0.0285841949 
   H    2.7479431341 -1.1738296351 -1.0819746291 
   H    4.9252117300 -0.7658427811  0.8999823410 
   H    5.0004955849 -0.6085294427 -0.8455614415 
   H    4.0130716292 -3.2037075195  1.7091846514 
   H    6.5091268139 -6.2916028842  0.0863882237 
   H    7.1846689245 -4.7902578304 -1.7529958692 



