%chk=frag34-conf1.chk
#B3LYP/6-31G* Integral=(Grid=UltraFine) freq Opt pop=none

Optimization for frag34-conf1

0  1
   C    2.8844305227  2.0473406287  1.0629133337 
   N    2.7643782656  0.6686976076  0.6134842869 
   S    3.1588802372 -0.5966461598  1.6384628910 
   O    2.7267744703 -0.2727499694  2.9781491590 
   O    2.7321462360 -1.8036232745  0.9645153750 
   C    4.9373164965 -0.5952006089  1.6425514544 
   C    5.6316211110 -1.6718885839  1.0825393156 
   C    7.0254878263 -1.7234748876  1.1741672358 
   C    7.7284698586 -0.7026243451  1.8237639817 
   O    9.0946804438 -0.7007845384  1.9390600673 
   C    9.6760432726 -1.9755288279  2.2021262105 
   C    7.0221243340  0.3921624304  2.3454845717 
   Cl    7.8373115089  1.7060473671  3.1169492346 
   C    5.6282336645  0.4357936270  2.2805638603 
   H    2.3343756597  2.6949042075  0.3739233985 
   H    3.9259319417  2.3721424914  1.0594741802 
   H    2.4511081795  2.1820619018  2.0578057930 
   H    2.8867500917  0.4638581171 -0.3763167911 
   H    5.1000470814 -2.4867934915  0.5934314557 
   H    7.5418908869 -2.5681521322  0.7275971196 
   H    10.7090304372 -1.8124062003  2.5241741590 
   H    9.7054365012 -2.5859637379  1.2946126481 
   H    9.1517630228 -2.4995573722  3.0095185850 
   H    5.0907231625  1.2587997491  2.7424515652 



