%chk=frag39-conf2.chk
#B3LYP/6-31G* Integral=(Grid=UltraFine) freq Opt pop=none

Optimization for frag39-conf2

0  1
   C    3.6901071072  0.5656160116 -3.2403414249 
   C    3.7427875996 -0.0359802805 -4.6182971001 
   C    1.5987385511  0.0807042941 -0.4630203247 
   C    1.2372956276  1.4559352398 -1.0047371387 
   C    2.3697512150  2.1044149399 -1.7972302437 
   N    2.6293063164  1.4169203043 -3.0477685928 
   O    4.5098042488  0.2891751230 -2.3671936989 
   H    3.4416842461  0.6963322163 -5.3727807999 
   H    4.7643017769 -0.3592670858 -4.8365764618 
   H    3.0713541508 -0.8976435661 -4.6609878540 
   H    1.7727944851 -0.6344293356 -1.2726250887 
   H    2.4991619587  0.1270891875  0.1576552242 
   H    0.7817296386 -0.3069936931  0.1538731456 
   H    0.9822492599  2.1071465015 -0.1605167240 
   H    0.3408220112  1.3722034693 -1.6304067373 
   H    2.0887324810  3.1297607422 -2.0601501465 
   H    3.2853164673  2.1507031918 -1.1979548931 
   H    1.9888590574  1.5794411898 -3.8213877678 



