%chk=frag35-conf0.chk
#B3LYP/6-31G* Integral=(Grid=UltraFine) freq Opt pop=none

Optimization for frag35-conf0

0  1
   C    5.6980001524  1.9457243828  5.3362725456 
   N    5.0568183421  0.7485548822  4.8644479376 
   C    5.4041270954  0.1863316866  3.6552652827 
   O    6.1489124096  0.7246178493  2.8441653869 
   C    4.7432107255 -1.1543979852  3.4308451843 
   C    5.2086616621 -1.8169176333  2.1354246700 
   H    4.8644394169 -1.1645712606  1.3272213405 
   N    4.5561984038 -3.1389576308  1.9452141276 
   S    4.6903617768 -4.4425600208  2.9756716673 
   C    6.4015876489 -4.9394057834  2.9132458930 
   O    4.3666894943 -4.0191630974  4.3196202380 
   O    3.9228190817 -5.4868209465  2.3325158132 
   C    6.7392994634 -1.9469043264  2.0521891762 
   O    7.4008308225 -2.0380319220  3.0916952237 
   N    7.3406874735 -2.0819396650  0.8013955661 
   C    6.7082788868 -1.8436424998 -0.4893748563 
   C    8.7800246753 -2.2953926685  0.7502803796 
   H    5.2311261055  2.2466466288  6.2764132833 
   H    5.5883354969  2.7340544557  4.5880094692 
   H    6.7606923979  1.7411848952  5.4960402931 
   H    4.3974954373  0.2699263996  5.4666739344 
   H    3.6579961586 -0.9963922817  3.3941752112 
   H    4.9702241630 -1.7664804297  4.3062826697 
   H    4.1628445740 -3.3636058917  1.0329530235 
   H    7.0058855007 -4.2682026868  3.5176544865 
   H    6.7282585353 -4.9669384006  1.8727622022 
   H    6.4746077654 -5.9398332539  3.3457477807 
   H    5.6372198516 -1.6636407048 -0.4279099583 
   H    6.8774402557 -2.7171259196 -1.1260681534 
   H    7.1800454311 -0.9699448401 -0.9523994382 
   H    9.2157807548 -2.4621572017  1.7382510308 
   H    9.2552863079 -1.4181044869  0.3010355693 
   H    8.9779261739 -3.1753907397  0.1312430937 



