%chk=frag33-conf2.chk
#B3LYP/6-31G* Integral=(Grid=UltraFine) freq Opt pop=none

Optimization for frag33-conf2

0  1
   C    1.0018095519  2.4988007632 -1.2204647685 
   C    2.5021701239  2.4430723565 -0.9238610430 
   C    2.7631729218  3.1654473628  0.3973731492 
   C    3.0713460367  1.0028407357 -0.9267852592 
   C    4.6189626739  0.9462434431 -0.7823150868 
   H    4.8736371966  1.2760982849  0.2198879436 
   N    5.0610609150 -0.4617239965 -0.8695741391 
   S    6.6379559188 -0.8993052754 -0.5603300773 
   C    7.5684300854 -0.3221734077 -1.9665315959 
   O    7.0792759115 -0.1656046905  0.6072563723 
   O    6.6590155754 -2.3441521869 -0.5959447510 
   C    5.2350115190  1.8304981628 -1.8830202259 
   O    5.1432425479  1.4651091511 -3.0619218507 
   N    5.8262035711  3.0465970562 -1.5489213450 
   C    6.2245014713  3.4837992710 -0.2159405654 
   C    6.1760304148  3.9755821053 -2.6158451513 
   H    0.7174097525  3.5303004257 -1.4642137262 
   H    0.4056997642  2.1915698489 -0.3550130888 
   H    0.7267016766  1.8704374896 -2.0721087489 
   H    2.9892006005  3.0015162445 -1.7318828858 
   H    2.0792008885  2.8228789370  1.1796490947 
   H    2.6311902456  4.2441986172  0.2692283728 
   H    3.7720370958  3.0085353927  0.7728200615 
   H    2.7817130778  0.5088906943 -1.8656478455 
   H    2.6094285812  0.4152672525 -0.1225572325 
   H    4.5206046459 -1.1200262408 -1.4281900103 
   H    7.5370974882  0.7638928072 -2.0111759987 
   H    7.1701419343 -0.7804527595 -2.8725154606 
   H    8.6084013951 -0.6272584406 -1.8236776997 
   H    5.9700129842  2.7869149679  0.5767991874 
   H    5.7480669070  4.4479906578 -0.0096913512 
   H    7.3105481850  3.6123786069 -0.2048145563 
   H    5.8448881101  3.6348041447 -3.5993521418 
   H    7.2614990835  4.1097547800 -2.6279108757 
   H    5.6976283492  4.9388060381 -2.4068053139 



