%chk=frag48-conf2.chk
#B3LYP/6-31G* Integral=(Grid=UltraFine) freq Opt pop=none

Optimization for frag48-conf2

0  1
   C    1.2294896150  0.0222855440  2.1834978116 
   N    2.6374277727 -0.0563843352  1.8722270633 
   C    3.2297627827  0.8929508310  1.0629662224 
   O    2.5876946891  1.7545950930  0.4635254203 
   C    4.7695792954  0.8426882798  1.0171929071 
   H    5.1271658682 -0.1651605401  1.2566708454 
   C    5.2380056545  1.2334093533 -0.4099231630 
   C    6.7382249768  1.1610013842 -0.6229928885 
   C    7.2923407862  0.2658736315 -1.5464896041 
   C    8.6800895522  0.1610395234 -1.6847691750 
   C    9.5273462699  0.9504497627 -0.9086538833 
   C    8.9894772333  1.8801915859 -0.0276066845 
   C    7.6068206974  1.9981224788  0.0944498288 
   N    5.3100244768  1.8454091049  1.9959118625 
   S    5.1405168873  1.5192460746  3.6315874554 
   C    6.2009655821  2.7711220062  4.3280768484 
   O    3.7774001382  1.8306748549  3.9835679492 
   O    5.7053227510  0.2129508149  3.8886978871 
   H    0.9821785578 -0.7683275877  2.8961943594 
   H    0.6481473652 -0.1076014781  1.2667765256 
   H    0.9996942662  0.9986269607  2.6211678866 
   H    3.2254076254 -0.5834184112  2.5084287411 
   H    4.9122643218  2.2523831941 -0.6594851723 
   H    4.7356443043  0.5776311958 -1.1348034391 
   H    6.6540581648 -0.3598738586 -2.1662889069 
   H    9.1034440575 -0.5446736127 -2.3945683677 
   H    10.6052549636  0.8484939642 -0.9955597236 
   H    9.6395875847  2.5122652721  0.5708201766 
   H    7.2190626618  2.7493853044  0.7748638475 
   H    4.9711192819  2.7810480165  1.7614037640 
   H    5.8759706638  3.7456296023  3.9547439362 
   H    7.2359103532  2.5726130278  4.0453689244 
   H    6.0928284731  2.7444173171  5.4141756920 



