%chk=frag4-conf1.chk
#B3LYP/6-31G* Integral=(Grid=UltraFine) freq Opt pop=none

Optimization for frag4-conf1

0  1
   C    6.9095858973  0.8988260422 -3.0087364205 
   N    6.3710597967  0.8530940236 -1.6750827315 
   C    5.1886190449  1.4836316905 -1.3450885156 
   O    4.5748140831  2.1992687263 -2.1345695389 
   C    4.7564115450  1.3482262277  0.1340269857 
   H    3.6633393594  1.3356862773  0.1768070895 
   C    5.3196445002  2.4708786226  1.0008196450 
   C    6.6824581815  1.9417871306  1.4308089966 
   C    6.4405019775  0.4474321062  1.6121598804 
   N    5.3105310412  0.1364644606  0.7445951202 
   C    4.7725878022 -1.1275011887  0.6882008649 
   C    3.5567559602 -1.3560661972 -0.1806984034 
   O    5.2665452809 -2.0659330862  1.3165372097 
   H    7.8148024857  0.2878320021 -3.0451980323 
   H    7.1484976270  1.9348315775 -3.2624640377 
   H    6.1684081406  0.5124566190 -3.7131307262 
   H    6.7689782698  0.2065955688 -1.0029229651 
   H    4.6889773468  2.5938805468  1.8911645372 
   H    5.3799498545  3.4348452184  0.4885449312 
   H    7.0552669605  2.4199097885  2.3409252108 
   H    7.4165580454  2.1187788430  0.6361889760 
   H    6.1754716083  0.1983833624  2.6446743996 
   H    7.3108127299 -0.1485526270  1.3175418157 
   H    3.2399558421 -0.4814484687 -0.7473241731 
   H    2.7220487993 -1.6708908113  0.4521210116 
   H    3.7857396706 -2.1434110452 -0.9039907406 



