%chk=frag35-conf2.chk
#B3LYP/6-31G* Integral=(Grid=UltraFine) freq Opt pop=none

Optimization for frag35-conf2

0  1
   C    4.9221435482 -1.8979278828  7.1087279469 
   N    4.7931979796 -1.2719175246  5.8204810150 
   C    5.0502855807 -1.9703299608  4.6588369739 
   O    5.4012220842 -3.1476593666  4.6353899887 
   C    4.8121583500 -1.1424877762  3.4111209075 
   C    5.1708686326 -1.8817486735  2.1148823016 
   H    4.8715380280 -1.2401951916  1.2767885541 
   N    4.4954874674 -3.2253192723  1.9688679058 
   S    2.8100305367 -3.2280271384  1.9578780560 
   C    2.4367831700 -4.9559588526  1.7457392748 
   O    2.3517925801 -2.8349799751  3.2727216632 
   O    2.3905656980 -2.5126175318  0.7758093995 
   C    6.7103774992 -2.0280561949  2.0167761681 
   O    7.4449080562 -1.5795221022  2.9032156299 
   N    7.2510118001 -2.6374301988  0.8886643848 
   C    8.6847738533 -2.8837374253  0.8339088107 
   C    6.4982643283 -3.0230436484 -0.2937717783 
   H    4.6485966426 -1.1760530496  7.8817790894 
   H    5.9567818955 -2.2219361176  7.2464000559 
   H    4.2592193937 -2.7660519527  7.1562161822 
   H    4.5013262426 -0.3043152838  5.7702411580 
   H    5.4056327820 -0.2227757396  3.4938828594 
   H    3.7635370551 -0.8278852706  3.3991591936 
   H    4.8943080553 -3.8838851678  2.6507734854 
   H    2.6969647139 -5.4891927753  2.6625072761 
   H    2.9908326745 -5.3445748951  0.8908158349 
   H    1.3627876504 -5.0457596868  1.5622605271 
   H    9.2068234948 -2.5478232120  1.7336721403 
   H    9.1010576129 -2.3570311399 -0.0299294436 
   H    8.8497342263 -3.9591752220  0.7173123599 
   H    5.4544175537 -2.7165598209 -0.2611679520 
   H    6.5565108531 -4.1091539365 -0.4044660451 
   H    6.9546865466 -2.5415608939 -1.1636417517 



