%chk=frag38-conf0.chk
#B3LYP/6-31G* Integral=(Grid=UltraFine) freq Opt pop=none

Optimization for frag38-conf0

0  1
   C    6.2990045612  2.9396995257  2.0381656708 
   N    6.0523042165  1.6035444181  1.5600966978 
   C    4.7952392818  1.0290756228  1.6618631161 
   O    3.8729193272  1.6165877081  2.2341309855 
   C    4.6723579991 -0.4065183078  1.0498440161 
   H    3.6242596735 -0.6422878543  0.8199522192 
   C    5.3620881491 -1.5568712185  1.8042485881 
   C    6.3827021627 -1.6647653632  0.6701749890 
   N    5.5534196951 -0.7435016998 -0.0829799851 
   C    5.1825279407 -0.7294400224 -1.4005933537 
   C    6.0492574770 -1.4940985928 -2.3659860784 
   O    4.1895939507 -0.1184227276 -1.7956486284 
   H    7.3731311322  3.1345763387  2.0013602095 
   H    5.9386991232  3.0385508297  3.0663379172 
   H    5.7672418788  3.6487234655  1.3985310090 
   H    6.7367828626  1.1517042976  0.9683165773 
   H    4.7337269753 -2.4463531514  1.9241898008 
   H    5.7901774082 -1.2981260657  2.7776881901 
   H    6.4787980616 -2.6653821370  0.2435518181 
   H    7.3704776174 -1.2481309205  0.8876911683 
   H    6.8901758072 -1.9923299603 -1.8815215825 
   H    6.4476737125 -0.7981876900 -3.1093310922 
   H    5.4382524105 -2.2513748311 -2.8664827168 



