%chk=frag19-conf2.chk
#B3LYP/6-31G* Integral=(Grid=UltraFine) freq Opt pop=none

Optimization for frag19-conf2

1  1
   C    1.1794301271 -1.0873728991  0.2689372301 
   C    3.4938852787 -0.7770211101  0.8076635003 
   C    0.9404549599 -1.4231961966  1.5971038342 
   C    3.2065823078 -1.1187584400  2.1251554489 
   C    2.4700987339 -0.7478509545 -0.1404407471 
   C    2.1493704319 -2.2780771255 -3.0932798386 
   C    2.7015373707 -3.4984974861 -3.7780566216 
   C    1.6714408398 -1.7934405804  3.8885200024 
   C    2.7576870918 -0.4114700854 -1.5799953938 
   N    1.9464128017 -1.4239965677  2.4947137833 
   N    3.0700712204 -1.6083441973 -2.3279738426 
   O    0.9846103191 -1.9115920067 -3.2351150513 
   H    0.3546774983 -1.1000653505 -0.4401717782 
   H    4.5187635422 -0.5394890904  0.5328494310 
   H   -0.0465295017 -1.6970652342  1.9530822039 
   H    3.9739487171 -1.1562538147  2.8904931545 
   H    1.8835002184 -4.1825141907 -4.0201535225 
   H    3.2083244324 -3.1970484257 -4.6985712051 
   H    3.4096527100 -4.0205998421 -3.1282720566 
   H    1.8004344702 -2.8753540516  3.9734869003 
   H    2.3682534695 -1.2664302588  4.5456414223 
   H    0.6489591002 -1.5030838251  4.1440615654 
   H    1.9041422606  0.1082822308 -2.0297424793 
   H    3.6212749481  0.2589680851 -1.6514252424 
   H    4.0134577751 -1.9777213335 -2.2552757263 



