%chk=frag8-conf0.chk
#B3LYP/6-31G* Integral=(Grid=UltraFine) freq Opt pop=none

Optimization for frag8-conf0

0  1
   C    1.1165385853  0.1273090434 -0.0945101457 
   C    2.6173955712  0.0486894410 -0.0233466989 
   O    3.2054913701 -0.7342626515  0.7159172922 
   N    3.2557176322  0.9322389561 -0.8551660948 
   C    4.6999710761  1.0027637372 -0.9183907533 
   C    5.1188353860  2.0526016503 -1.9129816521 
   C    5.0343324252  3.4113624536 -1.5794338749 
   C    5.2792579092  4.3903723206 -2.5410342281 
   C    5.5871664434  4.0221162043 -3.8504816301 
   C    5.6834218604  2.6713917619 -4.2021194558 
   C    5.9588814973  2.2626209135 -5.6191366514 
   C    5.4804393239  1.6927263429 -3.2194432322 
   H    0.6793458677 -0.6074833671  0.5877464433 
   H    0.7769099864 -0.0920297667 -1.1105883251 
   H    0.7799167581  1.1247774611  0.2017594729 
   H    2.7167567042  1.5436091904 -1.4554340640 
   H    5.0841896760  0.0139219034 -1.1948820953 
   H    5.0878560772  1.2332006063  0.0805312442 
   H    4.7516571482  3.7109025294 -0.5722932220 
   H    5.2022696844  5.4419861313 -2.2772013635 
   H    5.7344466430  4.7978156505 -4.5984846040 
   H    5.9514201960  3.1259718887 -6.2927062376 
   H    5.1795336529  1.5739568017 -5.9633449087 
   H    6.9337233125  1.7726856304 -5.6975842314 
   H    5.5684445128  0.6403050699 -3.4850046252 



