%chk=frag43-conf1.chk
#B3LYP/6-31G* Integral=(Grid=UltraFine) freq Opt pop=none

Optimization for frag43-conf1

1  1
   C    6.4701290363 -3.0504910650  0.1346253194 
   N    6.4050031499 -1.6498853690  0.5604068390 
   C    7.6818739336 -0.9510301452  0.6098774047 
   C    5.1416232740 -1.1519654875  0.8205126486 
   O    4.1436157656 -1.8596345985  0.6199702606 
   C    4.8521696567  0.3064136366  1.2853995867 
   H    3.7585715460  0.3335260367  1.3609397357 
   N    5.1483579497  1.3701195733  0.2271446864 
   H    4.9062443838  2.2918624811  0.5962163966 
   H    6.1537312973  1.3895830673  0.0113028429 
   C    4.4122152524  1.2374871596 -1.0833929278 
   C    5.0978892083  0.2939393164 -2.0580041066 
   N    4.3197433895 -0.2302585107 -3.0400056197 
   O    6.2991410369  0.0492788814 -1.9630122751 
   C    5.4063322536  0.7801490491  2.6591038972 
   C    4.7951278799  2.1306865151  3.1304394819 
   C    3.3058323828  2.0235831009  3.4651066172 
   C    3.0765748772  1.0113433480  4.5792865451 
   C    3.7390297406 -0.3365017725  4.2967850984 
   C    5.1876729232 -0.2288133091  3.8068456335 
   H    7.4999037314 -3.3763115227 -0.0396544665 
   H    5.9014269633 -3.1660965707 -0.7949558977 
   H    6.0215561135 -3.6850521757  0.9049843243 
   H    8.3894886660 -1.4132600627 -0.0892876475 
   H    8.0827351636 -1.0177289626  1.6228992055 
   H    7.5777856836  0.0937360818  0.3296082784 
   H    4.4330011580  2.2365616736 -1.5317615970 
   H    3.3811051431  0.9468149663 -0.8730739377 
   H    3.3561630308  0.0304636906 -3.2162171095 
   H    4.7433964164 -0.8726123801 -3.7028669869 
   H    6.4884582092  0.9256246287  2.5519853189 
   H    4.9506799632  2.9318160367  2.4035370102 
   H    5.3260124764  2.4594790125  4.0342721665 
   H    2.7229980548  1.7440132683  2.5805213341 
   H    2.9252672542  3.0025632730  3.7799751790 
   H    2.0000273289  0.8678577717  4.7340172027 
   H    3.4711929405  1.4223697159  5.5170457560 
   H    3.1436497422 -0.8849979457  3.5590441143 
   H    3.7197145771 -0.9315704050  5.2188470219 
   H    5.5553240041 -1.2218860948  3.5289251529 
   H    5.8050890872  0.0916952931  4.6578644247 



