%chk=frag6-conf1.chk
#B3LYP/6-31G* Integral=(Grid=UltraFine) freq Opt pop=none

Optimization for frag6-conf1

1  1
   C    1.2033037317 -1.1241450066 -1.3654047517 
   C    2.1746767108 -1.2007637195 -0.2207341541 
   O    1.8147281854 -1.3399728004  0.9432152725 
   N    3.4936609173 -1.1452056420 -0.6078825816 
   C    4.5746772395 -1.2200026153  0.3535529665 
   C    5.1182990331 -2.6222970507  0.5376857581 
   C    6.4637450889 -2.8089809934  0.8784467112 
   C    6.9954117186 -4.0972307361  1.0255382264 
   C    6.1953299694 -5.2375247643  0.8399002781 
   C    4.8324648560 -5.0422364295  0.5746806962 
   C    4.3029119356 -3.7557380222  0.4379078133 
   C    6.7698503555 -6.5978790879  0.8833401563 
   N    6.0477124437 -7.6132037907  1.3092078948 
   N    7.9998666199 -6.8014208478  0.4587987410 
   H    8.5489533935 -6.0333151678  0.0888273388 
   H    8.4299619100 -7.7158397856  0.4558651507 
   H    0.1824144551 -1.2160430202 -0.9833295176 
   H    1.3890192138 -1.9427206956 -2.0665666236 
   H    1.3047370458 -0.1638571584 -1.8771550390 
   H    3.7219773660 -1.0985714584 -1.5922201737 
   H    4.2511649167 -0.8194700002  1.3198765127 
   H    5.3659292423 -0.5719703282 -0.0415703474 
   H    7.1120387260 -1.9455739896  1.0293395108 
   H    8.0467313965 -4.1829752505  1.2933178944 
   H    4.1509992518 -5.8787065315  0.4381656508 
   H    3.2374203958 -3.6510187469  0.2399849280 
   H    5.1103973737 -7.4652748310  1.6675475254 
   H    6.3931832087 -8.5630475990  1.3104968784 



