%chk=frag13-conf2.chk
#B3LYP/6-31G* Integral=(Grid=UltraFine) freq Opt pop=none

Optimization for frag13-conf2

1  1
   C   -6.0186848640  2.9366447926  0.7582589984 
   C   -0.7335987687  0.6311879754 -0.5664737225 
   C   -2.1334612370  0.0763972104 -0.8144852519 
   C   -0.7442789078  1.7883151770  0.4282003045 
   C   -2.8301830292 -0.3013117909  0.4927570224 
   C   -1.4410899878  1.4038140774  1.7336506844 
   C   -2.8507807255  0.8387039304  1.5168583393 
   C   -7.2442545891  4.9507513046  1.4707051516 
   C   -6.0920524597  3.6098549366  3.1932580471 
   C   -5.2177677155  1.6764523983  1.1163222790 
   N   -6.4014263153  3.8025405407  1.7799193859 
   N   -3.7445139885  1.9450491667  1.0702259541 
   O   -6.2617015839  3.1902561188 -0.4294551313 
   H   -0.0899403542 -0.1699233204 -0.1822609454 
   H   -0.2951885462  0.9632844925 -1.5142956972 
   H   -2.7318549156  0.8153648376 -1.3598061800 
   H   -2.0656387806 -0.8073369861 -1.4594405890 
   H    0.2859237194  2.0957760811  0.6416351199 
   H   -1.2430305481  2.6549534798 -0.0214952044 
   H   -3.8418688774 -0.6617651582  0.2789101005 
   H   -2.2954406738 -1.1521401405  0.9354936481 
   H   -0.8343018293  0.6446403265  2.2441418171 
   H   -1.4733933210  2.2731199265  2.4015915394 
   H   -3.2490246296  0.4852513671  2.4748532772 
   H   -8.1787176132  4.8601579666  2.0325829983 
   H   -7.4795494080  5.0178465843  0.4057980478 
   H   -6.7216649055  5.8622360229  1.7754775286 
   H   -5.9011874199  4.5821676254  3.6574723721 
   H   -5.2100443840  2.9855701923  3.3397011757 
   H   -6.9546661377  3.1387865543  3.6728043556 
   H   -5.4751787186  1.2857173681  2.1030931473 
   H   -5.4392046928  0.9093350768  0.3681752682 
   H   -3.5722024441  2.7706601620  1.6530092955 
   H   -3.5108363628  2.2545874119  0.1213352978 



