%chk=frag16-conf1.chk
#B3LYP/6-31G* Integral=(Grid=UltraFine) freq Opt pop=none

Optimization for frag16-conf1

0  1
   C    6.3176341071  2.7485310627 -1.0832379239 
   C    5.3412692697  1.6120147553 -0.9770436215 
   O    4.1417483807  1.7927702780 -0.7872683950 
   N    5.9081300494  0.3716204160 -1.1336190269 
   C    5.1368437737 -0.8538300495 -0.9562921526 
   H    4.0757327276 -0.6202679720 -1.0970804345 
   C    5.1915926137 -1.3460087312  0.5062294136 
   C    6.4830431444 -1.9333120636  1.1309143902 
   C    7.7553606586 -1.0709200463  1.1593812917 
   C    7.7430176598  0.0723333455  2.1738774262 
   C    7.3460002855 -0.3833620189  3.5753674806 
   C    6.0910341777 -1.2471877535  3.5746937301 
   C    6.1837503065 -2.3998358059  2.5736741759 
   C    5.5071047318 -1.8835209647 -2.0600711917 
   O    6.3405953540 -2.7666982162 -1.8425930440 
   N    4.9474163642 -1.7185431278 -3.3334731466 
   C    5.3277162242 -2.6305411989 -4.4051421856 
   C    4.0321198949 -0.6565828047 -3.7341424987 
   H    5.8165041563  3.6812626823 -0.8077050374 
   H    6.6818813898  2.8299829848 -2.1103904682 
   H    7.1564154969  2.5914708938 -0.3995900455 
   H    6.9082667467  0.2864149170 -1.2594748129 
   H    4.4292702753 -2.1362122374  0.5812332541 
   H    4.8270772134 -0.5270105527  1.1391209871 
   H    6.7260692324 -2.8352064515  0.5581858608 
   H    8.0132390622 -0.6939873855  0.1676958132 
   H    8.5878622431 -1.7343297063  1.4362010734 
   H    7.0684671131  0.8663218606  1.8372230778 
   H    8.7471863860  0.5140536468  2.2251437491 
   H    7.1889087737  0.4938870461  4.2151752528 
   H    8.1726186104 -0.9485727739  4.0243881860 
   H    5.2199366576 -0.6208004015  3.3529760148 
   H    5.9325614233 -1.6540338187  4.5802090410 
   H    5.2542174409 -2.9803961677  2.6003882070 
   H    6.9823375254 -3.0813895286  2.8934432667 
   H    5.8810354541 -3.4997512388 -4.0428597212 
   H    5.9502507994 -2.0846102366 -5.1214751826 
   H    4.4240210528 -2.9800633096 -4.9161558627 
   H    3.7761989760  0.0345317208 -2.9365663956 
   H    3.1085814534 -1.1175554735 -4.0994024175 
   H    4.4935501953 -0.0871923997 -4.5465497810 



