%chk=frag5-conf1.chk
#B3LYP/6-31G* Integral=(Grid=UltraFine) freq Opt pop=none

Optimization for frag5-conf1

0  1
   C    1.0709223465  0.2822355551  0.5399407684 
   C    2.5699220075  0.3835675725  0.5938107894 
   O    3.1635238148  1.4509554546  0.4886675325 
   N    3.1954642210 -0.8263332477  0.7773344860 
   C    4.6369014519 -0.9247427664  0.7794664707 
   C    5.1047775683 -2.1320944281  1.5494733626 
   C    4.7426864466 -2.3005199360  2.8959399221 
   C    5.2032858612 -3.3973684704  3.6264895982 
   C    6.0485554412 -4.3287521228  3.0253961272 
   C    6.4209505251 -4.1638267928  1.6930447753 
   Cl    7.4862646702 -5.2985081556  0.9584009235 
   C    5.9490415161 -3.0791138406  0.9523954066 
   H    0.6391410968  1.2852361628  0.4769318963 
   H    0.6965901046 -0.2033870519  1.4453665962 
   H    0.7694599652 -0.2896164008 -0.3416116557 
   H    2.6581828220 -1.6799404744  0.7009122111 
   H    5.0796955764 -0.0199086034  1.2109450299 
   H    4.9546726630 -0.9792658078 -0.2682147616 
   H    4.1035426443 -1.5659370077  3.3840741206 
   H    4.9125259690 -3.5180263862  4.6671797805 
   H    6.4190069856 -5.1725122981  3.6011897621 
   H    6.2511727850 -2.9670078182 -0.0863728182 



