%chk=frag23-conf1.chk
#B3LYP/6-31G* Integral=(Grid=UltraFine) freq Opt pop=none

Optimization for frag23-conf1

0  1
   C    1.1429114702 -1.2831771823  0.3447041421 
   N    2.5934375412 -1.2222790572  0.2735909288 
   C    3.2597165354 -2.0081026458 -0.7547848416 
   C    3.2638105832 -0.4353676611  1.2012840482 
   O    2.6593192415  0.2264693367  2.0525478806 
   C    4.7874571001 -0.4356721866  1.1993863942 
   N    5.3909566305 -0.8759740945  2.4698051600 
   S    5.0727518408 -2.4173219927  3.0414396026 
   C    3.5291889948 -2.2412801690  3.9155703642 
   O    4.8726850219 -3.2892387944  1.9078062493 
   O    6.0902111700 -2.6940535605  4.0325414603 
   H    0.7330696529 -1.9450293315 -0.4228726378 
   H    0.7354385682 -0.2770846430  0.2087415477 
   H    0.8475514394 -1.6543560893  1.3311044358 
   H    2.5400328875 -2.5412187391 -1.3800885164 
   H    3.9218385268 -2.7386466981 -0.2889065175 
   H    3.8505128813 -1.3357609530 -1.3831724505 
   H    5.0987719793  0.6005700253  1.0195030925 
   H    5.2193804978 -1.0211863564  0.3878372998 
   H    5.4471844978 -0.1674504757  3.2010589264 
   H    2.7316777048 -1.9609829794  3.2333433808 
   H    3.6574815999 -1.5019541789  4.7080772070 
   H    3.2852742611 -3.2124766091  4.3519610728 



