%chk=frag24-conf2.chk
#B3LYP/6-31G* Integral=(Grid=UltraFine) freq Opt pop=none

Optimization for frag24-conf2

0  1
   C    1.0491901928  0.0648058226  0.0796245026 
   C    2.5689452867 -0.0559467499 -0.0217411778 
   H    2.9512178140  0.3915844060  0.9066641087 
   N    2.9847348430 -1.4729512776  0.0205908663 
   S    4.6204692246 -1.8592374652 -0.0270442605 
   C    5.2219702760 -1.2338093445  1.5297398493 
   O    4.6649275017 -3.3040537394  0.0129853405 
   O    5.2371775246 -1.1358880219 -1.1127640734 
   C    3.1395072375  0.7982735064 -1.1568359806 
   O    3.8337635838  1.7746611165 -0.8451260778 
   N    2.8575607475  0.4965135494 -2.4827502230 
   C    2.0292195123 -0.5904612802 -2.9769427699 
   C    3.4733337344  1.3099809038 -3.5197157209 
   H    0.6763000465 -0.4512628076  0.9706450695 
   H    0.5181152177 -0.3592596641 -0.7749759477 
   H    0.7533253573  1.1177120521  0.1452129890 
   H    2.4491203860 -2.1387726636 -0.5328676964 
   H    4.6304204322 -1.6699408218  2.3366046280 
   H    5.1538989421 -0.1450367924  1.5319950508 
   H    6.2667720670 -1.5355456394  1.6315509927 
   H    1.6821021106 -1.2643817779 -2.2011790205 
   H    2.6046423004 -1.1806978085 -3.6953096863 
   H    1.1579356438 -0.1563153830 -3.4771197403 
   H    4.1305188204  2.0847558917 -3.1183544159 
   H    2.6816657832  1.7854328130 -4.1060714772 
   H    4.0647016028  0.6574703601 -4.1696983028 



