%chk=frag50-conf0.chk
#B3LYP/6-31G* Integral=(Grid=UltraFine) freq Opt pop=none

Optimization for frag50-conf0

1  1
   C    1.0329869066  0.5625877126 -0.2547656443 
   N    2.4888699324  0.6330542198 -0.1992287110 
   C    3.0483931234  1.5162168305  0.8213577541 
   C    3.2212642464 -0.0636537980 -1.1617480651 
   O    2.6628694043 -0.7146526528 -2.0601441318 
   C    4.7742563843 -0.0982074852 -1.0588759901 
   H    5.1203851382  0.8193803309 -0.5829447867 
   C    5.1796427379 -1.3227469880 -0.2279015632 
   C    4.7272891231 -2.6931141539 -0.7618628931 
   C    5.1411202701 -3.0854373457 -2.1787756490 
   N    4.5035418730 -4.3527538576 -2.5560596393 
   C    3.2809676848 -4.4385483776 -3.0988380775 
   N    2.8061107366 -5.6465937893 -3.4194355180 
   N    2.5126311146 -3.3677449908 -3.3193209850 
   H    2.7860051493 -2.4270384366 -3.0256755945 
   H    1.6041625396 -3.4366647508 -3.7524518820 
   N    5.3605820984 -0.1277952692 -2.4207146619 
   S    7.0108574458 -0.1851408037 -2.7143134840 
   C    7.5983787654  1.3290930379 -2.0013348205 
   O    7.5757102425 -1.2885444768 -1.9702774850 
   O    7.1419241983 -0.1185456261 -4.1490222169 
   H    0.5799802142  0.9882039127  0.6470437160 
   H    0.7135246060 -0.4794731433 -0.3462502111 
   H    0.6910538240  1.1226597033 -1.1297956572 
   H    2.2855127000  2.2135807989  1.1853852844 
   H    3.8688034478  2.1086363583  0.4142363862 
   H    3.4034183817  0.9098406678  1.6592386740 
   H    4.7499400334 -1.2133059935  0.7765461493 
   H    6.2601143164 -1.3325400214 -0.0612544280 
   H    3.6367615703 -2.7594726462 -0.6795213046 
   H    5.1123576478 -3.4623505901 -0.0808126507 
   H    6.2183650871 -3.2503570661 -2.2528099851 
   H    4.8742787934 -2.3601149879 -2.9477374397 
   H    5.0643496172 -5.1914927308 -2.4923579705 
   H    3.3435183797 -6.4857201861 -3.2458376583 
   H    1.8827177614 -5.7583711613 -3.8142241427 
   H    4.8328686615  0.3469470160 -3.1589046831 
   H    7.3018846766  1.3644425222 -0.9522879302 
   H    7.1808772737  2.1624715634 -2.5655848499 
   H    8.6880930470  1.3250835264 -2.0668320016 



