%chk=frag2-conf1.chk
#B3LYP/6-31G* Integral=(Grid=UltraFine) freq Opt pop=none

Optimization for frag2-conf1

0  1
   C    2.6177358071  1.5632201409 -1.4253729813 
   N    1.9636661962  0.3266067695 -1.0393958703 
   C    0.5147461035  0.4248064443 -0.8202514495 
   C    2.6548278786 -0.8980482207 -1.0212158837 
   O    2.0667357779 -1.9798959897 -0.9304401789 
   C    4.2410807898 -0.8685129252 -1.1342492415 
   H    4.6066604728  0.1483197915 -1.2421458688 
   C    5.0194603818 -1.5219102272  0.0360915446 
   C    5.1234008315 -0.7447437432  1.3653679132 
   C    3.7915109818 -0.3409973089  1.9913363442 
   C    2.9851277296 -1.5484518571  2.4478642859 
   C    3.7560631524 -2.3714207236  3.4721320184 
   C    5.1669634574 -2.7311021976  3.0100738002 
   C    5.9405886538 -1.5620086152  2.3919992881 
   N    4.7531111163 -1.6466470095 -2.3640604897 
   H    5.7838503559 -1.5721024340 -2.3139621339 
   H    4.4720332897 -2.6304956648 -2.3484867390 
   C    4.5056062611 -0.9879664428 -3.7081235789 
   C    5.1613616190  0.4113260481 -3.8135563970 
   O    6.1976276166  0.4966360780 -3.0922112014 
   O    4.5101717014  1.2758703997 -4.4533729615 
   H    1.9091965786  2.3904274173 -1.5069467229 
   H    3.0908642972  1.4154135245 -2.3914900981 
   H    3.3609167240  1.8050109291 -0.6628254152 
   H    0.2452699898  1.4619463165 -0.5749638998 
   H    0.1991254633 -0.2023561652  0.0174394305 
   H   -0.0305939190  0.1399810424 -1.7252465841 
   H    6.0670830356 -1.6273118529 -0.2912924874 
   H    4.6663166601 -2.5459085882  0.1992270732 
   H    5.6873853424  0.1748649805  1.1560919586 
   H    3.2082804582  0.2718113506  1.3037031059 
   H    3.9908542969  0.3020612057  2.8587131525 
   H    2.7298524778 -2.1839519266  1.5943919020 
   H    2.0379618424 -1.2107371156  2.8821784231 
   H    3.2002723750 -3.2923458161  3.6854022370 
   H    3.8108844339 -1.8128986872  4.4140658987 
   H    5.1048333419 -3.5478593679  2.2819308670 
   H    5.7321752815 -3.1254502557  3.8636563755 
   H    6.8559444659 -1.9503603283  1.9263704061 
   H    6.2717399042 -0.8916586029  3.1952939773 
   H    3.4282637165 -0.9874948340 -3.8764531659 
   H    4.9937336900 -1.6382636503 -4.4438821866 



