%chk=frag41-conf2.chk
#B3LYP/6-31G* Integral=(Grid=UltraFine) freq Opt pop=none

Optimization for frag41-conf2

1  1
   C    3.3017750521 -0.9169526918  0.7935100878 
   N    2.4793445913  0.0382353331  0.0620969919 
   C    1.0360992859 -0.0246874601  0.2624281432 
   C    3.0331927109  1.0447925333 -0.7315401222 
   O    2.3954356557  1.9183966857 -1.3094166154 
   C    4.5596472852  1.0085095891 -0.8378299357 
   N    5.1808435709  2.1069442632 -1.6610293998 
   H    4.8683143886  1.9859618250 -2.6388814845 
   H    4.7855456036  3.0055982331 -1.3551327093 
   C    6.7177337548  2.0664490450 -1.6093028079 
   H    6.9561606083  2.1992006601 -0.5574130663 
   C    7.2056238963  0.6904831433 -2.1663835166 
   O    6.7532148526  0.3416453764 -3.2630751484 
   N    8.0366571621 -0.1310820360 -1.4177635963 
   C    8.4668070019  0.0677677380 -0.0382127787 
   C    8.4642084834 -1.4087220737 -1.9917415229 
   C    7.2854411374  3.2351858309 -2.4590737783 
   C    6.9350737793  4.6358357913 -1.9088484147 
   C    7.7015504074  5.0092852622 -0.6380086657 
   C    9.2089443326  4.8249046513 -0.7920626612 
   C    9.5628069225  3.4434400858 -1.3243681461 
   C    8.8183185297  3.1461731049 -2.6223604421 
   H    2.7003104096 -1.6201741185  1.3707557680 
   H    3.9633757896 -0.3681463026  1.4703158325 
   H    3.9108759869 -1.4723703557  0.0739701857 
   H    0.7621073908 -0.9336099194  0.8082942253 
   H    0.5312231600 -0.0314792435 -0.7072323585 
   H    0.7120217501  0.8488947417  0.8345243975 
   H    4.8508618685  0.0638202237 -1.3002728974 
   H    4.9822486414  1.1200116513  0.1635174301 
   H    8.2324766839  1.0538590454  0.3505425206 
   H    9.5495588516 -0.0816968536  0.0214295508 
   H    7.9649321703 -0.6759364718  0.5880198485 
   H    8.2528521613 -1.4802884403 -3.0610697101 
   H    7.9440655433 -2.2168793259 -1.4677139390 
   H    9.5433650717 -1.5234780220 -1.8426212519 
   H    6.8488572526  3.1590255278 -3.4648325753 
   H    5.8606570329  4.7395862944 -1.7289564578 
   H    7.1787054668  5.3770861922 -2.6818803537 
   H    7.3407635579  4.4087141072  0.2048334832 
   H    7.4952498607  6.0565015105 -0.3859434062 
   H    9.7015636791  4.9851897346  0.1737575955 
   H    9.6008725498  5.5845698989 -1.4790901531 
   H    9.3219924301  2.6956887622 -0.5658688559 
   H    10.6426875838  3.3743299650 -1.4939380879 
   H    9.1206090369  2.1663568700 -3.0063466905 
   H    9.1339212470  3.8719821342 -3.3833159318 



