%chk=frag30-conf0.chk
#B3LYP/6-31G* Integral=(Grid=UltraFine) freq Opt pop=none

Optimization for frag30-conf0

0  1
   C    1.0346747795 -0.0610494392 -0.0246008171 
   C    2.5361016095  0.0185259609  0.0284311592 
   O    3.1347839598  0.6846700879  0.8668350639 
   N    3.1622762356 -0.7039953335 -0.9551550763 
   C    4.6086579113 -0.8183924167 -0.9858867444 
   C    5.0473657120 -1.6731579746 -2.1507956543 
   C    5.4038643922 -1.0833974327 -3.3613456751 
   C    5.6301731194 -1.9006452004 -4.4655819713 
   C    5.5186205556 -3.2789089681 -4.3292382127 
   C    5.1982163478 -3.7880890666 -3.0832549261 
   N    4.9413218165 -3.0196423451 -2.0023093944 
   H    0.6079546734  0.5536374373  0.7733624688 
   H    0.7066723186 -1.0947657984  0.1148238188 
   H    0.6759940093  0.3158927409 -0.9864959130 
   H    2.6369453956 -1.4021197705 -1.4674948539 
   H    4.9433390208 -1.2654940350 -0.0428274884 
   H    5.0391099629  0.1879432997 -1.0442663003 
   H    5.4762819011 -0.0043962447 -3.4548042471 
   H    5.8774964782 -1.4631199124 -5.4286715409 
   H    5.6740536497 -3.9403486114 -5.1740112065 
   H    5.1254242959 -4.8593571864 -2.9179445415 



