%chk=frag6-conf0.chk
#B3LYP/6-31G* Integral=(Grid=UltraFine) freq Opt pop=none

Optimization for frag6-conf0

1  1
   C    5.8091267161 -0.2440412010 -3.1386328191 
   C    5.9390879520 -0.6810128632 -1.7058765775 
   O    7.0335290945 -0.8449162658 -1.1763853478 
   N    4.7281187196 -0.8843936945 -1.0781058524 
   C    4.6335425450 -1.2184721053  0.3309077414 
   C    5.1266122396 -2.6182188025  0.6181970948 
   C    6.4648616105 -2.8272756144  0.9706322085 
   C    6.9860567499 -4.1170669977  1.0829639975 
   C    6.1763290207 -5.2410909905  0.8631878230 
   C    4.8149314019 -5.0273804620  0.5817412627 
   C    4.2980454201 -3.7316080583  0.4512871471 
   C    6.7543654089 -6.5998808389  0.8786665483 
   N    6.0379750835 -7.6216081414  1.2971042364 
   N    7.9850461653 -6.7931710427  0.4497676328 
   H    8.5290420302 -6.0164010501  0.0873392549 
   H    8.4230522869 -7.7034688421  0.4364980320 
   H    6.8033896111 -0.1955559524 -3.5932055595 
   H    5.3507699545  0.7468351625 -3.1838419904 
   H    5.2059661440 -0.9640898049 -3.6981906183 
   H    3.9047527490 -0.4964697326 -1.5206006726 
   H    3.5801632431 -1.1285888707  0.6211792924 
   H    5.1960202820 -0.4774221153  0.9102276775 
   H    7.1292712463 -1.9716089700  1.1001465545 
   H    8.0427046531 -4.2101236832  1.3236997529 
   H    4.1374170494 -5.8597456235  0.4055584108 
   H    3.2513843670 -3.5960084267  0.1825437088 
   H    5.1014933917 -7.4785946641  1.6575592135 
   H    6.3926484594 -8.5678642227  1.2941199202 



