%chk=frag2-conf1.chk
#B3LYP/6-31G* Integral=(Grid=UltraFine) freq Op pop=none SCRF

Optimization for frag2-conf1

0  1
   C    3.5506532192 -4.9117984772 -0.4729826748 
   C    7.0322504044 -2.1595559120 -1.5620955229 
   C    2.3950159550 -5.7350449562 -6.1431446075 
   C    1.2531714439 -5.0481328964 -5.4032349586 
   C    3.4173772335 -6.3143281937 -5.1724481583 
   C    1.7705836296 -3.9847311974 -4.4384455681 
   C    3.9388947487 -5.2587118149 -4.1991200447 
   C    2.7972590923 -4.5577273369 -3.4444768429 
   C    3.5746116638 -7.0416278839  0.7697743177 
   C    5.6586508751 -6.2785148621 -0.3193636239 
   C    5.5980639458 -1.6858862638 -1.2257486582 
   C    3.3099555969 -3.4271569252 -2.5222754478 
   C    4.2683510780 -3.8944211006 -1.4099611044 
   N    4.2585310936 -6.0182671547 -0.0097158207 
   N    4.6817250252 -2.6987881660 -0.5800173879 
   O    7.6507887840 -1.5360273123 -2.4724078178 
   O    2.3873043060 -4.7002692223 -0.1007610708 
   O    7.4497780800 -3.1560375690 -0.8924638629 
   H    1.9959402084 -6.5331249237 -6.7791681290 
   H    2.8880755901 -5.0135760307 -6.8062062263 
   H    0.5696509480 -4.5883822441 -6.1259264946 
   H    0.6745654345 -5.7957458496 -4.8468427658 
   H    2.9594135284 -7.1352071762 -4.6067819595 
   H    4.2556662560 -6.7429637909 -5.7332744598 
   H    2.2249922752 -3.1677641869 -5.0136866570 
   H    0.9228209257 -3.5544629097 -3.8918292522 
   H    4.6199135780 -5.7481355667 -3.4951756001 
   H    4.5292811394 -4.5170187950 -4.7518887520 
   H    2.2802581787 -5.3082160950 -2.8326272964 
   H    3.6536169052 -7.9955348969  0.2396843135 
   H    2.5174484253 -6.8103609085  0.9206507206 
   H    4.0623421669 -7.1234097481  1.7455821037 
   H    6.0763144493 -6.9936618805  0.3954160810 
   H    6.2362818718 -5.3563308716 -0.2587379813 
   H    5.7217297554 -6.6899461746 -1.3302783966 
   H    5.0923466682 -1.2934768200 -2.1112627983 
   H    5.6829652786 -0.8713253736 -0.4983371794 
   H    3.8078167439 -2.6798696518 -3.1510560513 
   H    2.4451766014 -2.9226505756 -2.0705866814 
   H    5.1770038605 -4.3116936684 -1.8438541889 
   H    5.2098717690 -3.0723338127  0.2188818157 
   H    3.8492870331 -2.2541224957 -0.1810309887 


