%chk=frag9-conf1.chk
#B3LYP/6-31G* Integral=(Grid=UltraFine) freq Opt pop=none

Optimization for frag9-conf1

0  1
   C    1.7387663126 -0.5683386922 -0.0919106230 
   C    1.1014981270  0.0948694795  0.9551656842 
   C    2.4743468761 -1.7246606350  0.1613731384 
   C    1.1962978840 -0.4000140131  2.2568547726 
   C    2.5703823566 -2.2211799622  1.4623395205 
   C    1.9236955643 -1.5689290762  2.5215604305 
   C    3.5416285992 -1.8498711586  5.8754305840 
   C    4.7620568275 -1.1377922297  6.3913164139 
   C    2.0511877537 -2.0872025490  3.9294443130 
   N    3.2021765709 -1.5160754919  4.5900087357 
   O    2.8953690529 -2.6385767460  6.5622897148 
   H    1.6653091908 -0.1810516119 -1.1066913605 
   H    0.5316410661  1.0014334917  0.7582438588 
   H    2.9770240784 -2.2395699024 -0.6556654572 
   H    0.6993674636  0.1331784725  3.0669324398 
   H    3.1553580761 -3.1218268871  1.6470119953 
   H    4.4639015198 -0.1759951860  6.8168225288 
   H    5.2387976646 -1.7466821671  7.1643872261 
   H    5.4849457741 -0.9694320560  5.5880374908 
   H    1.1566567421 -1.8461884260  4.5159635544 
   H    2.1491916180 -3.1793024540  3.9352388382 
   H    3.7681796551 -0.8403692245  4.0841012001 



