%chk=frag20-conf0.chk
#B3LYP/6-31G* Integral=(Grid=UltraFine) freq Opt pop=none

Optimization for frag20-conf0

1  1
   C    4.4421343656  1.9510223890  3.1955750449 
   C    5.1240763394  0.9404301318  2.3172856222 
   O    6.3404106150  0.9047676732  2.1591378178 
   N    4.2738515822  0.0087455323  1.7656271165 
   C    4.7387073060 -0.9797305947  0.8121554462 
   C    5.1697683148 -2.2673217028  1.4777430030 
   C    6.2559572332 -2.2473417562  2.3610010937 
   N    6.7041310284 -3.3746907174  2.9583103359 
   C    7.8841538479 -3.3243518806  3.8428188243 
   C    6.1073595860 -4.5630548768  2.7312424804 
   C    5.0355111337 -4.6545564066  1.8579849633 
   C    4.5738985185 -3.5051070437  1.2217559087 
   Cl    3.2737721428 -3.6946670889  0.1064226600 
   H    5.1913879534  2.6174599065  3.6325952964 
   H    3.9160926218  1.4370288141  4.0049435520 
   H    3.7368795415  2.5454152968  2.6096060259 
   H    3.2770407479  0.1976494780  1.8018624532 
   H    5.5781144215 -0.5750715242  0.2342604655 
   H    3.9166705256 -1.1270785442  0.1074546278 
   H    6.7945307508 -1.3349322533  2.5948748672 
   H    8.2200134641 -2.2928144392  3.9690068171 
   H    8.6711022429 -3.9196857024  3.3713841634 
   H    7.6006197833 -3.7466788920  4.8103662946 
   H    6.5086388459 -5.4334554515  3.2433871198 
   H    4.5741694588 -5.6212863126  1.6663188481 



