%chk=frag38-conf2.chk
#B3LYP/6-31G* Integral=(Grid=UltraFine) freq Opt pop=none

Optimization for frag38-conf2

0  1
   C    4.0283169638  3.3344439024  1.8679818181 
   N    3.9002591584  1.9649973298  1.4359860339 
   C    4.9460985831  1.0683160850  1.5829390998 
   O    6.0135740209  1.4157600946  2.0934291707 
   C    4.6278009151 -0.3830730994  1.0606656192 
   H    3.5539460730 -0.5566522906  0.9161687396 
   C    5.2946483820 -1.5597987157  1.8064221578 
   C    6.3073927139 -1.6593863361  0.6602709530 
   N    5.4031602762 -0.8175449653 -0.0967916268 
   C    5.2421935344 -0.7168726312 -1.4437285457 
   C    4.0861587519  0.1221888746 -1.9155144957 
   O    5.9637812438 -1.3081582699 -2.2451440180 
   H    3.1151310453  3.8730798702  1.6046557093 
   H    4.8888637247  3.7944658716  1.3745267827 
   H    4.1757108477  3.3564052956  2.9510835416 
   H    3.0256760683  1.6629619931  1.0284336150 
   H    4.6490706502 -2.4397717965  1.9103718058 
   H    5.7277745635 -1.3278891323  2.7838867091 
   H    6.4437519923 -2.6624427861  0.2489107568 
   H    7.2751547277 -1.1836818307  0.8410556638 
   H    3.8098011541  0.8856389873 -1.1872595107 
   H    3.2268252629 -0.5269545983 -2.1031256749 
   H    4.3682216516  0.6327466234 -2.8406962347 



