%chk=frag57-conf0.chk
#B3LYP/6-31G* Integral=(Grid=UltraFine) freq Opt pop=none

Optimization for frag57-conf0

0  1
   C    1.0473433134  0.0677074272  0.0662966836 
   C    2.5484808573  0.1234089782  0.0066998478 
   O    3.1549116355  0.7670667700 -0.8430753071 
   N    3.1636499686 -0.6177875815  0.9849244510 
   C    4.6037148401 -0.6975026220  1.0600899858 
   C    5.0549512397 -1.6360583913  2.1474296965 
   C    5.8873416224 -1.1915625814  3.1848450747 
   C    6.3213384414 -2.0774734599  4.1753709794 
   C    5.9415521052 -3.4190415994  4.1327245070 
   C    5.1236181736 -3.8623106494  3.0996434009 
   O    4.7420410164 -5.1675375646  3.0034556802 
   C    4.6741623106 -2.9859474270  2.1182503743 
   H    0.6256761492  0.6891546699 -0.7288149597 
   H    0.6978368683  0.4448756001  1.0311519119 
   H    0.7089560517 -0.9625310860 -0.0749784408 
   H    2.6094156928 -1.1098864610  1.6734469390 
   H    4.9871726232  0.3164025207  1.2238967546 
   H    4.9908723621 -1.0388705910  0.0926416295 
   H    6.2097788893 -0.1528278353  3.2263009425 
   H    6.9626099543 -1.7204276603  4.9776967502 
   H    6.2909095309 -4.0963837843  4.9053411576 
   H    5.2390225277 -5.6827290461  3.6599066639 
   H    4.0370899435 -3.3616374531  1.3210337807 



