%chk=frag16-conf2.chk
#B3LYP/6-31G* Integral=(Grid=UltraFine) freq Opt pop=none

Optimization for frag16-conf2

0  1
   C    3.9510321459  1.9449309045 -0.7409464361 
   C    5.4061474751  1.6493923788 -0.9778837458 
   O    6.2396736836  2.5540511879 -1.0425487692 
   N    5.8082828799  0.3602157369 -1.1213084108 
   C    5.0696932354 -0.8929153942 -0.9359095157 
   H    4.0237270859 -0.6730740289 -1.1769674319 
   C    5.1440321343 -1.3307294394  0.5397917123 
   C    6.4538134427 -1.9306314601  1.1180647843 
   C    7.7255772973 -1.0632412076  1.1346403809 
   C    7.7268154901  0.0718421401  2.1599305029 
   C    7.3431931092 -0.3905848523  3.5632065748 
   C    6.0917990232 -1.2592064689  3.5688131634 
   C    6.1868477012 -2.4100566539  2.5641569951 
   C    5.5608138956 -1.9241617180 -1.9999651497 
   O    6.5979800786 -1.6864708770 -2.6321660067 
   N    4.8212364677 -3.0777399046 -2.2520235496 
   C    5.2534430895 -3.9733054945 -3.3221316937 
   C    3.5750441612 -3.4605435451 -1.6095357093 
   H    3.7857604298  3.0213515979 -0.8624544849 
   H    3.6631466119  1.6599193313  0.2730578726 
   H    3.3243313113  1.4341220880 -1.4760638873 
   H    6.7900654247  0.2622982804 -1.3612535251 
   H    4.3751061543 -2.0967307832  0.6920953355 
   H    4.8269841616 -0.4826378571  1.1575752192 
   H    6.6823603936 -2.8191788908  0.5152099291 
   H    7.9640048778 -0.6738496693  0.1422532271 
   H    8.5655731636 -1.7254430166  1.3924905350 
   H    7.0503098769  0.8690682782  1.8350497381 
   H    8.7319427991  0.5124347427  2.2044484558 
   H    7.1883293691  0.4838781069  4.2075897853 
   H    8.1749750573 -0.9546225552  4.0040454806 
   H    5.2172197576 -0.6355163870  3.3525867404 
   H    5.9390113150 -1.6668094307  4.5747815078 
   H    5.2652840603 -3.0022525707  2.6041089368 
   H    6.9987788584 -3.0816074627  2.8707603541 
   H    6.2359102310 -3.7144894505 -3.7235244011 
   H    4.5211148146 -3.9219927936 -4.1356836146 
   H    5.2877028489 -4.9986187560 -2.9404081073 
   H    3.2060994769 -2.7143934150 -0.9115657542 
   H    3.7397538469 -4.4044645249 -1.0796481405 
   H    2.8108155524 -3.6126987059 -2.3782216472 



