%chk=frag32-conf0.chk
#B3LYP/6-31G* Integral=(Grid=UltraFine) freq Opt pop=none

Optimization for frag32-conf0

0  1
   C    1.1761890265 -0.0021414213 -0.0319903462 
   C    2.6783498616 -0.0671392986 -0.0740573530 
   O    3.2912917791 -1.0013708900 -0.5783368512 
   N    3.2833768498  1.0315872302  0.4865833627 
   C    4.7243375865  1.1494568999  0.5305911604 
   C    5.1763049345  2.4668990479  1.1065029131 
   C    4.5248746323  3.6662269828  0.7950602806 
   C    5.0028540243  4.8498619409  1.3349754909 
   N    6.0788411157  4.9239128692  2.1440945011 
   C    6.7129473717  3.7637461360  2.4142510769 
   C    6.3110849899  2.5302816837  1.9220175179 
   H    0.7546054017 -0.9103320430 -0.4712744750 
   H    0.8306646020  0.8613292506 -0.6079104934 
   H    0.8327349919  0.0823575863  1.0026341495 
   H    2.7233482417  1.6722559027  1.0324864524 
   H    5.1179424099  1.0368769032 -0.4862423461 
   H    5.1013874292  0.3127523158  1.1309644068 
   H    3.6608327463  3.6885183679  0.1392834594 
   H    4.5188280381  5.7978399218  1.1183084872 
   H    7.5849565956  3.8540026600  3.0561173401 
   H    6.8812050648  1.6410192016  2.1723154090 



