%chk=frag51-conf0.chk
#B3LYP/6-31G* Integral=(Grid=UltraFine) freq Opt pop=none

Optimization for frag51-conf0

0  1
   C    6.5560533341 -0.2584757586  2.0052184631 
   C    5.3680853791 -0.0421895302  1.1110002258 
   O    4.2389399867 -0.4154005705  1.4183580134 
   N    5.6579357946  0.5924790991 -0.0776240109 
   C    4.5912458361  0.8496410206 -1.0125005728 
   C    5.0220166779  1.6297098912 -2.2331719181 
   C    4.9909287841  3.0367701173 -2.1443088973 
   C    5.2187684069  3.8287039933 -3.2668559002 
   Cl    5.0560980196  5.5372078411 -3.1572029666 
   C    5.5433682284  3.2423368767 -4.4812802212 
   C    5.6568447893  1.8542041123 -4.5681350015 
   C    5.3824683116  1.0232052260 -3.4622210745 
   C    5.4555493480 -0.4843492379 -3.6066549692 
   O    5.7604251802 -0.8984200185 -4.9353194031 
   H    6.2463363815 -0.8240377779  2.8900446814 
   H    6.9665860858  0.7015961291  2.3271144410 
   H    7.3179031336 -0.8355249518  1.4746914055 
   H    6.5586492951  1.0359180354 -0.2058281807 
   H    3.8056099893  1.4074729841 -0.4856831626 
   H    4.1343784103 -0.1064056391 -1.2870779732 
   H    4.7420947552  3.5147974839 -1.1983767020 
   H    5.7068267244  3.8524221025 -5.3656401264 
   H    5.9497829427  1.4275084996 -5.5260932511 
   H    4.4961664131 -0.9397195700 -3.3435348603 
   H    6.2368561925 -0.8827291718 -2.9527059599 
   H    4.9973601743 -0.6537841457 -5.4866761635 



