%chk=frag46-conf0.chk
#B3LYP/6-31G* Integral=(Grid=UltraFine) freq Opt pop=none

Optimization for frag46-conf0

0  1
   C    1.1231723445 -0.0109992387  0.0366054884 
   N    2.5626394343  0.0563760128  0.0270516904 
   C    3.2277541794  0.7755567200 -0.9468984298 
   O    2.6495952075  1.4170481082 -1.8179041641 
   C    4.7178790049  0.6990306410 -0.9311154919 
   C    5.4158500403  0.9511689090 -2.1175895294 
   C    6.8075413046  0.8170527842 -2.1567311934 
   C    7.5191460797  0.4506555449 -1.0117713401 
   C    6.8306072677  0.2648054141  0.1874036864 
   C    5.4361828093  0.3845087896  0.2286587473 
   O    8.8676948389  0.3065385242 -1.1882000371 
   C    9.6100427591 -0.1717480218 -0.0720485616 
   H    0.8081878380 -0.6441342319  0.8695470676 
   H    0.7723162300 -0.4360632436 -0.9077583190 
   H    0.7152228501  0.9958681572  0.1575245211 
   H    3.0694392944 -0.6062143526  0.5958377497 
   H    4.8786750139  1.2374370268 -3.0199023248 
   H    7.3378811677  0.9898676397 -3.0906446084 
   H    7.3481864994  0.0255345930  1.1104700013 
   H    4.9345897003  0.2450077278  1.1812052874 
   H    10.6374077843 -0.3531947377 -0.4015773272 
   H    9.2119219437 -1.1221455312  0.3007040673 
   H    9.6388589911  0.5816731115  0.7217202406 



