%chk=frag25-conf0.chk
#B3LYP/6-31G* Integral=(Grid=UltraFine) freq Opt pop=none

Optimization for frag25-conf0

0  1
   C    1.1163745355  0.0634040004  0.3158428849 
   C    2.6354007028  0.0372885201  0.1061000190 
   C    3.2933798503 -0.4379781603  1.4100594010 
   C    3.0417549450 -0.8289026195 -1.1381252616 
   H    2.6684272779 -1.8406208137 -0.9730215209 
   N    2.3696538511 -0.2007249186 -2.3384875365 
   S    2.5092517112 -0.9887537341 -3.8247917031 
   C    1.4569842183  0.0127495710 -4.8590634671 
   O    3.8702483881 -0.8073114061 -4.2767424553 
   O    1.9204514751 -2.3011732999 -3.7019159640 
   C    4.5851185266 -0.7818719661 -1.2991376507 
   O    5.1713120157  0.2881450349 -1.0872547659 
   N    5.2867382560 -1.9252133120 -1.6644067473 
   C    4.7042784053 -3.1622749582 -2.1647577084 
   C    6.7370113512 -1.8447235696 -1.7805536388 
   H    0.8625486271  0.5790836279  1.2492972527 
   H    0.7063778882 -0.9500485126  0.3691782630 
   H    0.6130486591  0.6000197510 -0.4940087694 
   H    2.9562058677  1.0752389827 -0.0604547753 
   H    3.0249515812 -1.4737913816  1.6392203883 
   H    2.9671550918  0.1870403271  2.2505926802 
   H    4.3841607806 -0.3645209714  1.3713987964 
   H    2.6996653411  0.7642135250 -2.4269226478 
   H    1.6830721269  1.0657344502 -4.6794667454 
   H    0.4116965481 -0.2082066265 -4.6390478164 
   H    1.6789351209 -0.2270706211 -5.9024588071 
   H    3.6303674797 -3.2231683128 -2.0177782032 
   H    5.1699723007 -4.0042999939 -1.6449911461 
   H    4.9198500179 -3.2420569276 -3.2354531922 
   H    7.1423908548 -0.9188677509 -1.3647784209 
   H    7.0162907507 -1.9094951485 -2.8368254009 
   H    7.1778656959 -2.6871325204 -1.2379928609 



