%chk=frag26-conf1.chk
#B3LYP/6-31G* Integral=(Grid=UltraFine) freq Opt pop=none

Optimization for frag26-conf1

0  1
   C    1.3442749171  1.9937780169  0.6088823160 
   N    2.7923530620  1.8110491336  0.5876362140 
   C    3.5282743106  2.3745994986  1.7072764246 
   C    3.3612641072  1.1559860915 -0.5047147109 
   O    2.6446117789  0.6811960122 -1.3962324384 
   C    4.9174016622  1.0633354594 -0.6537378228 
   H    5.4209510836  1.1813875361  0.3079619108 
   C    5.3039398002 -0.3165793334 -1.2659650634 
   C    6.8261949317 -0.6442799801 -1.3793837592 
   C    7.0206362948 -2.1318554189 -1.7539137474 
   C    6.6140505523 -2.4298595401 -3.1992858430 
   C    7.4145888436 -1.5798090892 -4.1803993299 
   C    7.3164289869 -0.0925243509 -3.8483732511 
   C    7.6552008717  0.1896128605 -2.3827320464 
   N    5.3711626148  2.0684258484 -1.6548123193 
   S    5.3767892226  3.6820771268 -1.2179185492 
   C    6.2514161021  4.3824201912 -2.5968836785 
   O    4.0110946598  4.1428495018 -1.2586218476 
   O    6.2002071974  3.8223982482 -0.0366120679 
   H    0.9922644598  2.2132182771  1.6226591989 
   H    0.8365957655  1.0912966150  0.2575378566 
   H    1.0819911882  2.8300136763 -0.0477180189 
   H    2.8860912230  3.0288225153  2.3070513838 
   H    4.3782729278  2.9574543394  1.3672481444 
   H    3.8804945375  1.5496539514  2.3311191441 
   H    4.8408376460 -0.4096559810 -2.2566387905 
   H    4.8363671887 -1.0945080854 -0.6467109389 
   H    7.2627272401 -0.4911607017 -0.3839789747 
   H    6.4618064150 -2.7768528081 -1.0677581837 
   H    8.0809040705 -2.3927823091 -1.6307586344 
   H    5.5437256266 -2.2419526749 -3.3406382693 
   H    6.7746325438 -3.4913921094 -3.4178417195 
   H    7.0626833084 -1.7573170263 -5.2033587327 
   H    8.4666589623 -1.8914246338 -4.1518317950 
   H    6.3080062592  0.2698706034 -4.0757257201 
   H    8.0046800478  0.4637887174 -4.4967364791 
   H    7.5894012159  1.2607279821 -2.1812838387 
   H    8.7165421396 -0.0573898814 -2.2340607917 
   H    4.8933260423  1.9169479458 -2.5467224664 
   H    5.7323911296  4.1047758451 -3.5167825300 
   H    7.2756766638  4.0053753683 -2.5974668632 
   H    6.2478530971  5.4676524006 -2.4827007746 



