%chk=frag47-conf0.chk
#B3LYP/6-31G* Integral=(Grid=UltraFine) freq Opt pop=none

Optimization for frag47-conf0

0  1
   C    3.3788004987  1.6493476776  0.1264581786 
   C    2.7126676014  0.3368339672  0.4611818304 
   O    1.4870356705  0.2221809447  0.4278199407 
   N    3.4693907281 -0.7242603770  0.8776891686 
   C    4.8617311655 -0.7911745834  0.9556404624 
   C    5.4362252299 -1.7746923353  1.7495830009 
   C    6.8195056397 -1.7572461649  1.9346745493 
   C    7.5876921274 -0.7977213396  1.2856849262 
   C    6.9400647739  0.0967030946  0.4603857115 
   N    5.6047135821  0.1148862341  0.2949461413 
   H    2.6192448798  2.4158717480 -0.0457674497 
   H    3.9734396232  1.5585022471 -0.7855663053 
   H    3.9951448169  1.9816546665  0.9684310100 
   H    2.9244045701 -1.5040066552  1.2166318406 
   H    4.8318760022 -2.5101666412  2.2693574049 
   H    7.2938986617 -2.4758515313  2.5967553122 
   H    8.6615022930 -0.7430834169  1.4194209037 
   H    7.4803030968  0.8567001699 -0.0960217101 



