%chk=frag32-conf1.chk
#B3LYP/6-31G* Integral=(Grid=UltraFine) freq Opt pop=none

Optimization for frag32-conf1

0  1
   C   -0.5996028781 -1.4131623507  5.3418869972 
   C   -0.6885482669 -2.9278779030  3.4795210361 
   C   -1.8681372404 -1.8463772535  5.6922059059 
   C   -1.9534864426 -3.2999019623  3.9050316811 
   C    0.0136432592 -1.9700688124  4.2162799835 
   C    2.3939974308  0.1780770719  2.3059160709 
   C    2.0918469429  1.3348231316  1.3930833340 
   C    1.3770225048 -1.5123569965  3.7785313129 
   N   -2.5597124100 -2.7813487053  4.9989423752 
   N    1.2820392847 -0.3982681036  2.8639349937 
   O    3.5408229828 -0.1934376657  2.5471000671 
   H   -0.1022939458 -0.6532374620  5.9384512901 
   H   -0.2622075975 -3.3785355091  2.5874221325 
   H   -2.3720660210 -1.4355875254  6.5644183159 
   H   -2.5252780914 -4.0449500084  3.3560342789 
   H    2.0223555565  2.2511744499  1.9850922823 
   H    2.8937921524  1.4361790419  0.6566910148 
   H    1.1500477791  1.1761176586  0.8601711392 
   H    1.9805666208 -1.2050102949  4.6408667564 
   H    1.9213447571 -2.3262574673  3.2848865986 
   H    0.3632893562 -0.0269504301  2.6384325027 



