%chk=frag41-conf0.chk
#B3LYP/6-31G* Integral=(Grid=UltraFine) freq Opt pop=none

Optimization for frag41-conf0

0  1
   N    1.8150078738 -0.1340252227  1.0760814269 
   C    2.5197071582  0.0447892874 -0.0819592773 
   O    2.6289600180  1.1716040366 -0.5555306401 
   C    3.1382240015 -1.1399599933 -0.6469090420 
   C    4.2122217904 -1.1868385673 -1.5205072916 
   C    4.5658367826 -2.5222482729 -1.8802556990 
   C    3.7260549855 -3.4280747603 -1.2878762038 
   Cl    3.7708886056 -5.1356015595 -1.4590306174 
   S    2.5555752191 -2.7178364314 -0.2973641836 
   H    1.4271222463  0.6817989417  1.5274809828 
   H    1.7910973575 -1.0262795876  1.5489336639 
   H    4.7270742957 -0.2977897896 -1.8691528442 
   H    5.3823470960 -2.7915979878 -2.5383239708 



