%chk=frag20-conf1.chk
#B3LYP/6-31G* Integral=(Grid=UltraFine) freq Opt pop=none

Optimization for frag20-conf1

1  1
   C    7.3278780014 -0.8287074379 -1.9911426435 
   C    6.8174164543 -1.1316599518 -0.6126468422 
   O    7.5625084227 -1.5119503562  0.2887079615 
   N    5.4590216776 -0.9542643756 -0.4625222653 
   C    4.7646450850 -1.0415808110  0.8109162016 
   C    5.0988344282 -2.3016961415  1.5672078106 
   C    6.1458601109 -2.2615325824  2.4957092939 
   N    6.6413490986 -3.3934600027  3.0396814307 
   C    7.8716506039 -3.3442113436  3.8501896507 
   C    6.0805452058 -4.5910395369  2.7708750251 
   C    5.0107608462 -4.6894219005  1.8935083050 
   C    4.5384470651 -3.5420733634  1.2671721843 
   Cl    3.3039515311 -3.7215540815  0.0786330246 
   H    8.3855366530 -1.1028355065 -2.0495307203 
   H    7.2278219179  0.2413670546 -2.1882488552 
   H    6.7747085498 -1.4049766031 -2.7369362376 
   H    4.9486926867 -0.5454512660 -1.2388714579 
   H    3.6888331924 -0.9798820426  0.6114526229 
   H    5.0176867592 -0.1517265917  1.4000264136 
   H    6.6651037781 -1.3337168630  2.7276514225 
   H    8.2175743483 -2.3133355606  3.9556850542 
   H    8.6316652382 -3.9379681370  3.3335605210 
   H    7.6443772074 -3.7678116993  4.8312274815 
   H    6.5193978481 -5.4655920452  3.2421435941 
   H    4.5833397566 -5.6627330879  1.6649421493 



