%chk=frag8-conf2.chk
#B3LYP/6-31G* Integral=(Grid=UltraFine) freq Opt pop=none

Optimization for frag8-conf2

0  1
   C    4.2245242245 -2.5526839222 -2.1756685458 
   C    4.8383530223 -1.4487564551 -1.3593473260 
   O    5.7946964173 -1.6376848467 -0.6152001783 
   N    4.2338761213 -0.2299858254 -1.5415445124 
   C    4.7340403590  0.9815034117 -0.9220301933 
   C    5.0912398163  2.0370373136 -1.9422793265 
   C    5.0160511528  3.3930733482 -1.5950220756 
   C    5.2686090061  4.3833674119 -2.5455139531 
   C    5.5817592380  4.0308902716 -3.8580514553 
   C    5.6925072384  2.6853654980 -4.2181205062 
   C    5.9726162274  2.2777428441 -5.6336240941 
   C    5.4999407299  1.6998956020 -3.2420978128 
   H    4.7465959530 -3.4911977811 -1.9677048829 
   H    4.3216985473 -2.3265585832 -3.2413657969 
   H    3.1696908161 -2.6712461016 -1.9145455412 
   H    3.4728524056 -0.1387330001 -2.2016365274 
   H    5.5922351693  0.7743390171 -0.2760353939 
   H    3.9099221756  1.3505238252 -0.3001903264 
   H    4.7442456647  3.6883067147 -0.5836961916 
   H    5.1971566118  5.4322444372 -2.2690459013 
   H    5.7305945029  4.8134889887 -4.5980499767 
   H    5.9645764592  3.1398240208 -6.3079111099 
   H    5.1933312708  1.5876058965 -5.9766494762 
   H    6.9463272745  1.7853654535 -5.7090472373 
   H    5.6374551072  0.6550876964 -3.5143072339 



