%chk=frag56-conf0.chk
#B3LYP/6-31G* Integral=(Grid=UltraFine) freq Opt pop=none

Optimization for frag56-conf0

0  1
   C    1.0655321041  0.0051028314  0.1507979414 
   C    2.5641979806 -0.0000442412  0.0346495993 
   O    3.1455090912 -0.2949426032 -1.0042600443 
   N    3.2145418945  0.3593963860  1.1905028050 
   C    4.6577535372  0.3598200550  1.2344869539 
   C    5.1079713260  0.7107123799  2.6146725714 
   C    5.1786361623  1.9579809720  3.2118060942 
   C    5.6668117310  1.8911269194  4.5522034290 
   C    5.9523277884  0.5994685233  4.9097052882 
   Cl    6.5606029147  0.0639062557  6.4231839400 
   S    5.6453842622 -0.5228671267  3.6836911422 
   H    0.6255541035 -0.2736887069 -0.8113277523 
   H    0.7160523714  1.0056257528  0.4192914602 
   H    0.7459755897 -0.7175935311  0.9062408990 
   H    2.6896146931  0.5005346113  2.0437635597 
   H    5.0237414278  1.0951449290  0.5087992577 
   H    5.0185429989 -0.6253574719  0.9178982459 
   H    4.8940540355  2.8764181962  2.7107558026 
   H    5.8004119097  2.7429823297  5.2071467425 



