%chk=frag57-conf1.chk
#B3LYP/6-31G* Integral=(Grid=UltraFine) freq Opt pop=none

Optimization for frag57-conf1

0  1
   C    3.6051118771  2.6830933740  2.4566996705 
   C    4.5316939748  1.6397131176  1.8995841815 
   O    5.7339435210  1.8412026756  1.7608184042 
   N    3.9031308673  0.4625587419  1.5698717800 
   C    4.6319156488 -0.6811939261  1.0652306192 
   C    5.0537250222 -1.6298254234  2.1604120233 
   C    5.9036975228 -1.2072045815  3.1955813224 
   C    6.3285916030 -2.0969789519  4.1845459453 
   C    5.9352433992 -3.4320596740  4.1369068320 
   C    5.1093025537 -3.8602540006  3.1030982331 
   O    4.7286735881 -5.1658534462  2.9971449700 
   C    4.6564003390 -2.9735837478  2.1294415983 
   H    4.1838395699  3.5671747157  2.7402393440 
   H    3.0964146538  2.2986714309  3.3448829786 
   H    2.8717868850  2.9686681196  1.6983205467 
   H    2.9213724998  0.3445577774  1.7790472033 
   H    5.5141272705 -0.3527235345  0.5046862133 
   H    3.9619035780 -1.1852278157  0.3592918612 
   H    6.2556586382 -0.1779082626  3.2319109114 
   H    6.9782748334 -1.7450414540  4.9818434975 
   H    6.2841947281 -4.1160501899  4.9033791179 
   H    5.2268256435 -5.6822100790  3.6521281623 
   H    4.0117978766 -3.3457476932  1.3374423827 



