%chk=frag30-conf2.chk
#B3LYP/6-31G* Integral=(Grid=UltraFine) freq Opt pop=none

Optimization for frag30-conf2

0  1
   C   -2.6246166229 -0.8316110969  4.8010954857 
   C   -2.8708596230 -2.1845650673  4.9970912933 
   C   -1.3330446482 -0.4073663652  4.5013132095 
   C   -1.8109736443 -3.0661816597  4.8834195137 
   C   -0.3139660954 -1.3538972139  4.4113469124 
   C    1.8429172039 -1.6171848774  1.7948515415 
   C    1.8485890627 -1.2010605335  0.3487847149 
   C    1.0919549465 -0.9173338413  4.0566015244 
   N   -0.5438451171 -2.6836614609  4.5933160782 
   N    1.2418129444 -0.7092571259  2.6277678013 
   O    2.3635683060 -2.6615164280  2.1803333759 
   H   -3.4345650673 -0.1094922572  4.8786149025 
   H   -3.8677055836 -2.5450611115  5.2310891151 
   H   -1.1284322739  0.6477517486  4.3397917747 
   H   -1.9609392881 -4.1340641975  5.0263910294 
   H    2.6935527325 -0.5308877230  0.1699688733 
   H    1.9455780983 -2.0867233276 -0.2851715386 
   H    0.9180214405 -0.6886690855  0.0884432867 
   H    1.3310477734  0.0268781204  4.5577626228 
   H    1.8096106052 -1.6684975624  4.4039773941 
   H    0.8350991607  0.1320110559  2.2302312851 



