%chk=frag1-conf1.chk
#B3LYP/6-31G* Integral=(Grid=UltraFine) freq Opt pop=none

Optimization for frag1-conf1

1  1
   C    6.5833864481  2.4676858824 -0.0165125904 
   C    6.2894602525  1.0050271665  0.1836530654 
   O    7.0278182838  0.1046034198 -0.2099517350 
   N    5.1384905894  0.7712143664  0.9074209644 
   C    4.6860499744 -0.5654495737  1.2276764526 
   C    5.2620903508 -1.0950578691  2.5470118127 
   C    6.7894393157 -1.1662728118  2.5689852246 
   N    7.2912763152 -1.9733394899  1.4500519684 
   C    7.1192541581 -3.2916531055  1.3210767785 
   N    7.1879038757 -3.8528913343  0.1138866559 
   N    6.8354563896 -4.0632932274  2.3747727757 
   H    6.8585456043 -3.6826225425  3.3115681247 
   H    6.6885805527 -5.0589075225  2.2849906779 
   H    7.5145766051  2.5804378337 -0.5777556686 
   H    6.6967777530  2.9580137665  0.9551082138 
   H    5.7714865288  2.9404083324 -0.5754608911 
   H    4.5745400213  1.5604790609  1.2072249557 
   H    4.9448721298 -1.2349879830  0.3988109956 
   H    3.5932699329 -0.5324597163  1.2882438758 
   H    4.8528309213 -2.0987798150  2.7136954267 
   H    4.9220454552 -0.4665879628  3.3767118524 
   H    7.1711448997 -1.5698175964  3.5117202807 
   H    7.2241627245 -0.1652375605  2.4772657180 
   H    7.6208253191 -1.4383888830  0.6402179259 
   H    7.3316130032 -3.2812439713 -0.7109654758 
   H    7.0060981355 -4.8372876967 -0.0265617289 



