%chk=frag18-conf1.chk
#B3LYP/6-31G* Integral=(Grid=UltraFine) freq Opt pop=none

Optimization for frag18-conf1

1  1
   C    4.4423556563 -2.5445786002 -2.7121505484 
   C    5.0463479095 -2.1374382976 -1.3992084151 
   O    6.1830241241 -2.4550589966 -1.0666138120 
   N    4.1604101690 -1.5002598850 -0.5514141464 
   C    4.5868221191 -1.0362045608  0.7582721810 
   C    5.0099860848 -2.1660752118  1.6700570748 
   C    5.9551291813 -1.9630186550  2.6762708304 
   C    6.3896051204 -3.0402409892  3.4428412903 
   C    5.8869464945 -4.3106002530  3.1851541447 
   N    4.9639623983 -4.4951506972  2.2180969916 
   C    4.4889566698 -5.8448238911  1.8774415289 
   C    4.5002874633 -3.4527204839  1.4972407038 
   H    5.1957604231 -3.0633922958 -3.3118875781 
   H    4.0906410136 -1.6674802571 -3.2586916257 
   H    3.6106342390 -3.2314761895 -2.5277643112 
   H    3.3549358666 -1.0497720856 -0.9732930571 
   H    3.7452550063 -0.5015431786  1.2112428741 
   H    5.4144718206 -0.3336008166  0.6072322855 
   H    6.3866780564 -0.9762926618  2.8444978888 
   H    7.1411117442 -2.8950421924  4.2159811533 
   H    6.2246647671 -5.1822931390  3.7371760441 
   H    4.9895586435 -6.5897401886  2.4985348958 
   H    4.7230654528 -6.0220979328  0.8231005100 
   H    3.4090953842 -5.8723127943  2.0447431575 
   H    3.7551415266 -3.6825831503  0.7414539339 



