%chk=frag40-conf2.chk
#B3LYP/6-31G* Integral=(Grid=UltraFine) freq Opt pop=none

Optimization for frag40-conf2

1  1
   C    1.0872016703  1.1645143538 -0.4713919464 
   N    2.5266039291  1.0111719938 -0.4958625677 
   C    3.1493404657  0.1393190363 -1.3528530399 
   O    2.5821231577 -0.5142476516 -2.2248487299 
   C    4.6736176443  0.0400648565 -1.2123814988 
   N    5.2734159677 -0.3107441532 -2.5558118737 
   H    4.7993449555 -1.1700112852 -2.8646391896 
   H    4.9357228448  0.4027661198 -3.2115247364 
   C    6.7919973783 -0.4218056333 -2.6141782807 
   H    7.1348144603  0.5518275723 -2.2431401081 
   C    7.3511884152 -1.4491055894 -1.5927447294 
   O    8.0364859114 -0.9948873150 -0.6695820431 
   N    7.0199603624 -2.7931022259 -1.6487027779 
   C    6.2570819610 -3.4822189687 -2.6781962553 
   C    7.5950564154 -3.6877871000 -0.6410535772 
   C    7.2640785847 -0.5776102008 -4.0879967982 
   C    6.8161830260  0.5886095939 -4.9964503802 
   C    7.5052225173  1.9001766918 -4.6303747681 
   C    9.0162663579  1.7686065286 -4.7761565348 
   C    9.5851290098  0.5625070912 -4.0290609735 
   C    8.7926774403 -0.7285701621 -4.2474608624 
   H    0.8349952438  1.9259438445  0.2713493670 
   H    0.6296396218  0.2109827609 -0.1947932220 
   H    0.7289010055  1.4708903372 -1.4575614561 
   H    3.0502091839  1.5331280209  0.1970931364 
   H    4.9121696436 -0.7646875945 -0.5130713514 
   H    5.1012853228  0.9952017526 -0.9007258528 
   H    5.7686185751 -2.8066337203 -3.3708346693 
   H    5.4825016659 -4.0836754183 -2.1928441694 
   H    6.9323180902 -4.1344578284 -3.2384239213 
   H    8.1296941967 -3.1536817947  0.1482205101 
   H    8.2911390242 -4.3720402798 -1.1361736276 
   H    6.7857354268 -4.2643910790 -0.1819576181 
   H    6.8203830205 -1.4856344873 -4.5052983299 
   H    5.7306701560  0.7166315377 -4.9882651283 
   H    7.0704547771  0.3392309050 -6.0357204809 
   H    7.2527003179  2.2023360533 -3.6081584777 
   H    7.1421807380  2.7010333956 -5.2840620703 
   H    9.5031076759  2.6842285294 -4.4203197343 
   H    9.2599056669  1.6804099779 -5.8423541124 
   H    9.6326962295  0.7850737561 -2.9577101347 
   H    10.6194698276  0.4036695889 -4.3609606091 
   H    9.1825407781 -1.5160448608 -3.5932139133 
   H    8.9894147104 -1.0725700982 -5.2727749768 



