%chk=frag40-conf1.chk
#B3LYP/6-31G* Integral=(Grid=UltraFine) freq Opt pop=none

Optimization for frag40-conf1

1  1
   C    0.9735420745 -1.2066616565 -4.2150297693 
   N    2.4016593564 -1.3945217914 -4.0748942236 
   C    3.0472040850 -1.1854267044 -2.8764180281 
   O    2.5242384135 -0.6993155204 -1.8798987373 
   C    4.5492888059 -1.4815611889 -2.8848534510 
   N    5.3335503625 -0.2503946746 -2.4651627542 
   H    4.9958190889  0.5523883706 -3.0100085784 
   H    5.0368128631 -0.0440393626 -1.4988780442 
   C    6.8621537755 -0.3519789069 -2.5437187612 
   H    7.2344285638  0.6124739493 -2.2013761144 
   C    7.3825944119 -1.4687199835 -1.5987776560 
   O    7.3890617239 -2.6295147653 -2.0181700456 
   N    7.7313748335 -1.1563763909 -0.2890326910 
   C    7.5398899223  0.1156529131  0.4032007896 
   C    8.3232051715 -2.2048629183  0.5430960238 
   C    7.2888793722 -0.5582361944 -4.0368000190 
   C    6.8136059766  0.5793178984 -4.9654398141 
   C    7.5012314043  1.9008744417 -4.6306626033 
   C    9.0141881526  1.7757734257 -4.7800978696 
   C    9.5990541719  0.5760772830 -4.0349908537 
   C    8.8097713844 -0.7139975458 -4.2419898724 
   H    0.6964369729 -1.4367117729 -5.2474627536 
   H    0.7140580734 -0.1714408461 -3.9807441436 
   H    0.4519186406 -1.8819059328 -3.5318683913 
   H    2.8791809856 -1.8084334433 -4.8669635165 
   H    4.8628460601 -1.7613177997 -3.8904985715 
   H    4.7622497471 -2.2803211559 -2.1708709446 
   H    7.1526201676  0.9028106443 -0.2398882944 
   H    8.4972308188  0.4380249446  0.8249109333 
   H    6.8269274503 -0.0412496399  1.2195231953 
   H    8.5389209520 -3.1147296961 -0.0216788347 
   H    7.6356419794 -2.4415212053  1.3605947821 
   H    9.2634309695 -1.8295755298  0.9616885761 
   H    6.8501273086 -1.4945879531 -4.4007895240 
   H    5.7265553743  0.6978524804 -4.9398327547 
   H    7.0552541181  0.3130987621 -6.0039179010 
   H    7.2520036140  2.2196364167 -3.6127528668 
   H    7.1310036255  2.6892756407 -5.2951818341 
   H    9.4971211449  2.6942597135 -4.4271875289 
   H    9.2537987292  1.6863869289 -5.8469699359 
   H    9.6549930708  0.7991397876 -2.9642147484 
   H    10.6298150629  0.4179144762 -4.3766248977 
   H    9.2174534687 -1.5033078449 -3.6017795542 
   H    8.9775794690 -1.0565129422 -5.2731932433 



