%chk=frag49-conf1.chk
#B3LYP/6-31G* Integral=(Grid=UltraFine) freq Opt pop=none

Optimization for frag49-conf1

0  1
   C    3.3045539023 -0.1099044091  1.5119396431 
   N    2.6465693276 -0.6312167700  0.3395849997 
   C    3.2701744191 -1.1685073482 -0.7536456280 
   O    2.5992594244 -1.6411884645 -1.6726137166 
   C    4.7977737298 -1.1261697613 -0.7956135796 
   N    5.3174185974 -2.1985328184 -1.6159062570 
   C    6.6677898801 -2.3953460627 -1.7312266047 
   C    7.0621577103 -3.5634388620 -2.5894387705 
   O    7.4993372645 -1.6855246269 -1.1708002448 
   H    2.5500635278  0.2246988838  2.2259038397 
   H    3.9453736992  0.7256980237  1.2187885832 
   H    3.9134387637 -0.8978277040  1.9640119671 
   H    1.6344712917 -0.6871449229  0.3198483933 
   H    5.2288419042 -1.2415045293  0.2012257110 
   H    5.1174186691 -0.1682675849 -1.2179619171 
   H    4.6495740296 -2.7693932475 -2.1243798235 
   H    6.1887038888 -4.0933418806 -2.9784193200 
   H    7.6520062977 -4.2607886447 -1.9880675330 
   H    7.6589203551 -3.2027560616 -3.4310079230 



