%chk=frag44-conf0.chk
#B3LYP/6-31G* Integral=(Grid=UltraFine) freq Opt pop=none

Optimization for frag44-conf0

1  1
   N    1.0366275868 -0.0531598349 -0.0188595091 
   C    2.3511733160 -0.0528362301 -0.0194187879 
   N    3.0419927217 -0.6791220217 -0.9469282523 
   H    4.0567058933 -0.6372001309 -0.9292974566 
   H    2.6070716746 -1.1882800146 -1.7033966643 
   C    3.0687332238  0.6704383492  1.0353364169 
   C    2.8627818376  2.0460455221  1.2208306029 
   C    3.5615812216  2.7374501120  2.2115291275 
   C    4.4661134485  2.0616467687  3.0277681342 
   C    4.6735799804  0.6943771336  2.8584565646 
   C    3.9798079412  0.0001904548  1.8661174411 
   H    0.4896203811 -0.5312705988 -0.7212442640 
   H    0.5350571640  0.4191039976  0.7276742716 
   H    2.1736752049  2.6000328445  0.5858882330 
   H    3.4084023774  3.8068296024  2.3471614320 
   H    5.0119601472  2.6029638058  3.7988588699 
   H    5.3774555364  0.1723310721  3.5046039694 
   H    4.1513707468 -1.0697208053  1.7615131052 



