%chk=frag51-conf2.chk
#B3LYP/6-31G* Integral=(Grid=UltraFine) freq Opt pop=none

Optimization for frag51-conf2

0  1
   C    1.6216017486 -1.4355660804 -0.6862135605 
   C    2.8129624662 -0.6406617557 -0.2290550987 
   O    3.2129072674 -0.6473132254  0.9307243759 
   N    3.4023542810  0.0812236231 -1.2359459637 
   C    4.6049170883  0.8495910524 -1.0036243970 
   C    5.0144166258  1.6202236074 -2.2386156235 
   C    4.9815508970  3.0285433837 -2.1635405123 
   C    5.2201363633  3.8109539343 -3.2899030091 
   Cl    5.0644513901  5.5213520227 -3.1922522421 
   C    5.5470414946  3.2131530825 -4.4992064844 
   C    5.6495228332  1.8231284679 -4.5774836156 
   C    5.3697894582  1.0051434182 -3.4640683133 
   C    5.4586868732 -0.4916025183 -3.6559946564 
   O    6.7805526795 -0.9498659585 -3.4347130832 
   H    1.1663711378 -1.9402168607  0.1701725121 
   H    1.9364454748 -2.1882442590 -1.4147948666 
   H    0.8802415241 -0.7708112222 -1.1383575995 
   H    3.0294851260  0.0215921553 -2.1731840461 
   H    5.4093442648  0.1915122009 -0.6586257474 
   H    4.3805793952  1.5368227887 -0.1771564949 
   H    4.7395796136  3.5191598116 -1.2218235535 
   H    5.7146112796  3.8196004647 -5.3850934558 
   H    5.9235375881  1.3756377805 -5.5313543887 
   H    5.1544800450 -0.7621967791 -4.6745015007 
   H    4.7945471545 -1.0431798016 -2.9904235613 
   H    7.3271935732 -0.6204812355 -4.1670786833 



