%chk=frag9-conf0.chk
#B3LYP/6-31G* Integral=(Grid=UltraFine) freq Opt pop=none

Optimization for frag9-conf0

0  1
   C    1.0647063212  0.1187826698 -0.0554548351 
   C    2.5661741067  0.0305808016 -0.0214992277 
   O    3.1662790215 -1.0290476349  0.1228317705 
   N    3.1863588325  1.2482399469 -0.1534400190 
   C    4.6303912495  1.3585016100 -0.1501122450 
   C    5.0996190256  2.7794299743 -0.3486861975 
   C    4.4434640601  3.8623515646  0.2576803817 
   C    4.8458157814  5.1738331275  0.0008978831 
   C    5.9440745310  5.4181129373 -0.8195392205 
   C    6.6542015419  4.3508099920 -1.3646563023 
   C    6.2342518791  3.0389877572 -1.1323888265 
   H    0.6354227811 -0.8805524749  0.0583398635 
   H    0.7340288235  0.5384588113 -1.0094776342 
   H    0.7129531964  0.7477731404  0.7674284000 
   H    2.6379722833  2.0519143809 -0.4281408038 
   H    5.0025741326  0.7176574499 -0.9588309448 
   H    5.0127486871  0.9618580773  0.7969012054 
   H    3.6029473502  3.6935062667  0.9270418363 
   H    4.3003437001  6.0045050335  0.4409774642 
   H    6.2522276338  6.4396350063 -1.0259639019 
   H    7.5313870960  4.5401787676 -1.9783113248 
   H    6.7964378579  2.2197637015 -1.5768021168 



