%chk=frag33-conf0.chk
#B3LYP/6-31G* Integral=(Grid=UltraFine) freq Opt pop=none

Optimization for frag33-conf0

0  1
   C    2.4603075976  0.8089868248  1.5506597365 
   C    2.2477226818  0.2817992938  0.1331312423 
   C    0.7625316910  0.4072503768 -0.2324595800 
   C    3.0960688125  1.0140866856 -0.9198648786 
   C    4.6361019244  0.9347656213 -0.7552772189 
   H    4.9654380713  1.3131270741  0.2128411905 
   N    5.0118921275 -0.5154914933 -0.8113426208 
   S    6.6397551350 -0.9084611355 -0.5748258065 
   C    6.5404178361 -2.6902960896 -0.5643389794 
   O    7.3796990079 -0.5159316089 -1.7515736479 
   O    7.0218582015 -0.4600165958  0.7432283209 
   C    5.1917583282  1.8304022383 -1.8850051924 
   O    5.4547301489  1.3364768842 -2.9860894428 
   N    5.2237377381  3.2167867557 -1.6774761536 
   C    4.9335624712  3.9042025400 -0.4245352332 
   C    5.6208718641  4.0944235480 -2.7723053424 
   H    2.0005502089  0.1271539777  2.2742331497 
   H    1.9995337840  1.7941228308  1.6830006131 
   H    3.5180417018  0.8938175951  1.8098113950 
   H    2.5095894563 -0.7828749232  0.1125544880 
   H    0.3913271835  1.4214978916 -0.0443510931 
   H    0.1602402465 -0.2864745991  0.3626218950 
   H    0.5884216418  0.1812051239 -1.2898647018 
   H    2.7749970860  2.0617355000 -0.9730046960 
   H    2.8469357153  0.5849465780 -1.9033349373 
   H    4.6471778134 -0.9565507731 -1.6562377378 
   H    6.0319403900 -3.0195036085 -1.4737656782 
   H    5.9968816870 -3.0154193457  0.3242480468 
   H    7.5549171371 -3.0958978108 -0.5526055057 
   H    4.5434238116  3.2511943138  0.3528521044 
   H    4.1870200141  4.6823734890 -0.6161054827 
   H    5.8538237741  4.3739478888 -0.0647748843 
   H    5.7959813285  3.5567601021 -3.7062500635 
   H    6.5344207489  4.6254284516 -2.4869561643 
   H    4.8241420370  4.8287148564 -2.9384242392 



