%chk=frag10-conf0.chk
#B3LYP/6-31G* Integral=(Grid=UltraFine) freq Opt pop=none

Optimization for frag10-conf0

1  1
   C    1.0356433656  0.0105141212 -0.0232266205 
   C    2.5556708499 -0.0828750814  0.0166984218 
   C    3.0666186019 -1.1758432629  0.9642027786 
   H    2.5948824551 -1.0915713080  1.9385768723 
   N    2.6326366207 -2.5185224786  0.4330493701 
   H    3.0203576041 -2.6412604509 -0.5155940577 
   H    3.0322622707 -3.2764834561  1.0006840231 
   H    1.6147072389 -2.6337361285  0.4012212678 
   C    4.6086204008 -1.1633543281  1.0144488455 
   O    5.1941646656 -1.4665028677 -0.0327456502 
   N    5.2763266724 -0.9390944546  2.2030615344 
   C    4.6826142525 -0.7177297536  3.5178674444 
   C    6.7386963664 -0.9698809448  2.2031317073 
   H    0.7235098892  0.8369693797 -0.6693334243 
   H    0.6305434536  0.1892109327  0.9776340821 
   H    0.5843964293 -0.9037941742 -0.4199632536 
   H    2.9573823448  0.8874194399  0.3344479084 
   H    2.9293773086 -0.2488009337 -1.0023046706 
   H    3.6007032931 -0.6184341219  3.4949478797 
   H    5.1006791556  0.1985860754  3.9437260710 
   H    4.9410770862 -1.5669519524  4.1585006011 
   H    7.1564987746 -1.1144396718  1.2040131293 
   H    7.0729301423 -1.7881828562  2.8487001898 
   H    7.1077257518 -0.0202544348  2.6028391226 



