%chk=frag7-conf2.chk
#B3LYP/6-31G* Integral=(Grid=UltraFine) freq Opt pop=none

Optimization for frag7-conf2

0  1
   C    1.1116058251  0.3707136640  1.0837976919 
   C    2.6060977815  0.5051337998  1.1845566885 
   O    3.1527265141  1.5653277577  1.4662354236 
   N    3.2784350231 -0.6690537517  0.9436127480 
   C    4.7164708149 -0.7742964851  1.0771012019 
   C    5.1228715915 -1.7561836259  2.1511189328 
   C    6.3502776358 -2.4335202857  2.0508551384 
   C    6.7559786842 -3.3325585622  3.0430026575 
   C    5.9383691880 -3.5674567411  4.1461310630 
   C    4.7356701976 -2.8836613379  4.2606840267 
   F    3.9475189280 -3.1054070309  5.3207606871 
   C    4.3328885435 -1.9726284425  3.2903366488 
   H    0.6443512034  1.3407132233  1.2768451545 
   H    0.7523180792 -0.3459696722  1.8276863314 
   H    0.8324451786  0.0382746725  0.0805888078 
   H    2.7571927048 -1.5153691061  0.7572077958 
   H    5.1654560417  0.2018834216  1.2864062194 
   H    5.0816486402 -1.1217975573  0.1039046155 
   H    7.0042682183 -2.2623909483  1.1971547535 
   H    7.7095762690 -3.8473942182  2.9552501677 
   H    6.2324954965 -4.2694058065  4.9193842657 
   H    3.3992382150 -1.4385347005  3.4388927858 



