%chk=frag1-conf2.chk
#B3LYP/6-31G* Integral=(Grid=UltraFine) freq Opt pop=none

Optimization for frag1-conf2

1  1
   C    6.5956551957 -1.8413034994 -1.8306724936 
   C    6.2999046233 -0.9613363408 -0.6470541025 
   O    7.0492993208 -0.0650667222 -0.2666465427 
   N    5.1353704312 -1.3035506905  0.0078411087 
   C    4.6746510105 -0.5955842650  1.1804554533 
   C    5.2259734455 -1.1802250410  2.4816806560 
   C    6.7486798131 -1.1312263454  2.5913424291 
   N    7.2956653304  0.2220450116  2.4195487809 
   C    7.1204964042  1.2615082712  3.2394275964 
   N    6.4199075607  1.1516667193  4.3724740125 
   N    7.6467531618  2.4493255599  2.9345066306 
   H    8.2017059759  2.5751258879  2.0965308000 
   H    7.5286334496  3.2519421646  3.5378905338 
   H    7.5235761906 -1.5137629864 -2.3060982764 
   H    5.7816444098 -1.7787839026 -2.5577865174 
   H    6.7148590539 -2.8765425025 -1.4974346295 
   H    4.5783936259 -2.0759724352 -0.3440693195 
   H    3.5812998757 -0.6570793544  1.1865883172 
   H    4.9434183548  0.4630197755  1.0899243526 
   H    4.9024983984 -2.2221746672  2.5847958712 
   H    4.7731126649 -0.6295544866  3.3119093035 
   H    7.2056953318 -1.7658637652  1.8235469145 
   H    7.1007139378 -1.5287513408  3.5488081620 
   H    7.7552432673  0.3907475818  1.5212926234 
   H    6.0633286814  0.2582165480  4.6802248152 
   H    6.2337441252  1.9494971899  4.9635620890 



