%chk=frag49-conf2.chk
#B3LYP/6-31G* Integral=(Grid=UltraFine) freq Opt pop=none

Optimization for frag49-conf2

0  1
   C    1.1752040492 -2.3207906523 -1.6084466986 
   N    2.5942048819 -2.2471186172 -1.4003693423 
   C    3.1796713136 -1.1719011325 -0.7661551152 
   O    2.5372552222 -0.3080532226 -0.1733104355 
   C    4.7190431559 -1.1404550126 -0.8265716445 
   N    5.3339905237 -2.2580554600 -1.5400761009 
   C    5.3010729200 -2.3390247934 -2.9113902899 
   C    5.9890875547 -3.5432895458 -3.4871968528 
   O    4.6553560664 -1.5633520391 -3.6095416039 
   H    0.9709229058 -3.1771343683 -2.2563612846 
   H    0.8244991463 -1.4020755912 -2.0856680302 
   H    0.6806253775 -2.4530435439 -0.6443121848 
   H    3.1815707620 -2.7329441466 -2.0627006531 
   H    5.0888880630 -1.1799908229  0.2036217422 
   H    5.0369065305 -0.2015920355 -1.2915948292 
   H    5.9882421791 -2.8342356362 -1.0266080190 
   H    6.5555970204 -4.0887015781 -2.7284634766 
   H    6.6689823086 -3.2237637722 -4.2798222792 
   H    5.2286071012 -4.2140048369 -3.8995223098 



