%chk=frag38-conf1.chk
#B3LYP/6-31G* Integral=(Grid=UltraFine) freq Opt pop=none

Optimization for frag38-conf1

0  1
   C    4.4315051647  3.4248718098  1.3346692121 
   N    4.3087025669  2.0491540189  0.9268546468 
   C    4.9610272206  1.0434387965  1.6153474134 
   O    5.6756113658  1.2914023161  2.5902525526 
   C    4.6790356626 -0.3921672001  1.0662939730 
   H    3.6050584965 -0.5546690370  0.9013276767 
   C    5.3252207463 -1.5838043920  1.7994905959 
   C    6.3664368889 -1.6554929640  0.6795851166 
   N    5.4743167851 -0.8170061429 -0.0940737260 
   C    5.0809194908 -0.7993705350 -1.3959518166 
   C    5.7773087035 -1.7367725229 -2.3470468714 
   O    4.1722871743 -0.0541159557 -1.7827586207 
   H    3.8516764777  4.0531404511  0.6555003114 
   H    5.4848006634  3.7175718290  1.3127167902 
   H    4.0520232003  3.5318322886  2.3555623939 
   H    3.8282619510  1.8160632627  0.0617684264 
   H    4.6774219165 -2.4660715184  1.8603357442 
   H    5.7317741075 -1.3813275811  2.7941391554 
   H    6.5420456456 -2.6613863471  0.2960809273 
   H    7.3183853339 -1.1593603474  0.8923491323 
   H    6.4506249229 -2.4323407264 -1.8443186823 
   H    6.3531169721 -1.1609749047 -3.0752703495 
   H    5.0189222109 -2.3309556115 -2.8673175165 



