%chk=frag27-conf2.chk
#B3LYP/6-31G* Integral=(Grid=UltraFine) freq Opt pop=none

Optimization for frag27-conf2

1  1
   C    1.0735268593 -1.0290285349  0.5801189542 
   C   -0.0673908219 -1.5384432077  1.2018508911 
   C    1.3260869980 -2.6392278671  2.8363966942 
   C    2.3600406647 -1.3094718456  1.0799900293 
   C    2.4882442951 -2.1425189972  2.2152662277 
   C    0.0629068762 -2.3391432762  2.3299047947 
   C    5.6469526291 -1.2723836899  3.9613511562 
   C    5.9470882416 -0.0919393599  4.8438992500 
   C    3.8290452957 -2.4869344234  2.8193016052 
   C    3.5533359051 -0.7424134612  0.3446563184 
   N    4.3216619492 -1.3976321220  3.6305186749 
   N    3.9964804649 -1.6220388412 -0.7365010977 
   O    6.5214667320 -2.0319998264  3.5502490997 
   Cl   -1.3413597345 -2.9636435509  3.1046240330 
   H    0.9522461295 -0.4023040235 -0.3039855361 
   H   -1.0498876572 -1.3034156561  0.7989509106 
   H    1.4111763239 -3.2664422989  3.7228710651 
   H    6.8777914047 -0.2715207934  5.3890304565 
   H    6.0543885231  0.8024856448  4.2245678902 
   H    5.1442394257  0.0642712936  5.5699763298 
   H    3.7526831627 -3.3684403896  3.4668323994 
   H    4.5569586754 -2.7406826019  2.0409393311 
   H    3.3031280041  0.2225892842 -0.1104040742 
   H    4.4095115662 -0.5726870894  1.0027188063 
   H    3.6471688747 -0.7625725865  4.0487575531 
   H    3.2534420490 -1.7765054703 -1.4173388481 
   H    4.2841472626 -2.5349915028 -0.3871412575 
   H    4.7897515297 -1.2218859196 -1.2361217737 



