%chk=frag19-conf1.chk
#B3LYP/6-31G* Integral=(Grid=UltraFine) freq Opt pop=none

Optimization for frag19-conf1

1  1
   C    0.7743899822 -0.8524062634  0.4594303668 
   C    3.1390597820 -1.2358129025  0.5271211267 
   C    0.7268581390 -1.0626577139  1.8337110281 
   C    3.0422706604 -1.4386795759  1.8994877338 
   C    1.9956239462 -0.9276735783 -0.2119965404 
   C    2.9629609585 -2.7494583130 -2.8405086994 
   C    2.5508918762 -4.0275230408 -3.5187289715 
   C    1.7726861238 -1.5704600811  3.9713945389 
   C    2.0718989372 -0.7350056171 -1.7037197351 
   N    1.8513461351 -1.3404155970  2.5237460136 
   N    1.9084086418 -1.9981184006 -2.3873720169 
   O    4.1392116547 -2.4094190598 -2.7314093113 
   H   -0.1466492265 -0.6345840096 -0.0758828521 
   H    4.1086096764 -1.3269646168  0.0424789079 
   H   -0.2020982057 -1.0163011551  2.3912863731 
   H    3.9059317112 -1.6841673851  2.5075080395 
   H    2.2891583443 -3.8155446053 -4.5587353706 
   H    3.3802039623 -4.7396249771 -3.4899754524 
   H    1.6911790371 -4.4754338264 -3.0122630596 
   H    1.5917015076 -2.6371858120  4.1254606247 
   H    2.7133224010 -1.2649964094  4.4371976852 
   H    0.9565946460 -0.9739660621  4.3876705170 
   H    1.2729300261 -0.0674910992 -2.0449628830 
   H    3.0248155594 -0.2706367075 -1.9816855192 
   H    0.9634254575 -2.3499417305 -2.5095572472 



