%chk=frag12-conf2.chk
#B3LYP/6-31G* Integral=(Grid=UltraFine) freq Opt pop=none

Optimization for frag12-conf2

1  1
   C    4.3035383224  2.6496767998 -3.6761791706 
   C    1.0279867649  0.7463473082 -0.1116910726 
   C    1.1538487673 -0.6291050911 -0.7678395510 
   C    1.2084459066  1.7689967155 -1.2318960428 
   C    1.3879309893 -0.3677834570 -2.2536790371 
   C    1.9847146273  1.0356374979 -2.3194525242 
   C    5.3240470886  2.4679996967 -5.9096221924 
   C    6.2132992744  1.0394214392 -4.1095829010 
   C    4.2359356880  2.2175314426 -2.2053751945 
   N    5.2348766327  2.0437822342 -4.5173707008 
   N    3.4374778271  0.9645337462 -1.9938489199 
   O    3.5037941933  3.4942514896 -4.1030335426 
   H    0.0611415580  0.8712482452  0.3864951134 
   H    1.8063895702  0.8690119982  0.6501318812 
   H    2.0023052692 -1.1719243526 -0.3354760706 
   H    0.2595543265 -1.2397812605 -0.6074628830 
   H    0.2213521451  2.0495319366 -1.6208746433 
   H    1.6863223314  2.6849079132 -0.8745161295 
   H    2.0193738937 -1.1356068850 -2.7120025158 
   H    0.4236928821 -0.3784392178 -2.7772424221 
   H    1.8746196032  1.4778693914 -3.3129987717 
   H    6.3209457397  2.8830628395 -6.0857343674 
   H    4.5782308578  3.2252633572 -6.1627774239 
   H    5.1730079651  1.5962281227 -6.5531425476 
   H    6.1921944618  0.2142162919 -4.8278999329 
   H    6.0203585625  0.6332813501 -3.1178417206 
   H    7.2046885490  1.5017825365 -4.1173419952 
   H    5.2329521179  2.0452718735 -1.7926806211 
   H    3.7749249935  3.0143752098 -1.6143791676 
   H    3.5754418373  0.6556028128 -1.0273357630 
   H    3.8646788597  0.2309715152 -2.5671558380 



