%chk=frag2-conf2.chk
#B3LYP/6-31G* Integral=(Grid=UltraFine) freq Opt pop=none

Optimization for frag2-conf2

0  1
   C    2.9836252502 -2.9620112629  1.2530254994 
   N    2.5201657499 -1.8632478768  2.1009379308 
   S    2.9544048455 -0.3021693333  1.6844446913 
   O    2.4740587319 -0.0755199184  0.3376656089 
   O    2.5353351143  0.5492499937  2.7794462519 
   C    4.8249094416 -0.3042396828  1.6691193367 
   H    5.1368561704 -1.0482416676  0.9302959529 
   C    5.2579904372  1.0758003768  1.1542159816 
   N    5.5519581328 -0.5283097357  2.9950862200 
   S    5.3475831867 -2.0435145904  3.7013174428 
   C    6.3907670492 -1.9541408531  5.1289959589 
   O    3.9876224218 -2.1117491656  4.1779027112 
   O    5.8831583548 -3.0322300583  2.7919034141 
   H    2.6966102555 -3.9102759104  1.7155611375 
   H    4.0695102760 -2.9667425226  1.1670924256 
   H    2.5510876085 -2.8984822049  0.2547697162 
   H    2.6682605055 -2.0197441906  3.1115528231 
   H    4.7921334859  1.3076351903  0.1900363943 
   H    6.3435640243  1.1220935183  1.0238449838 
   H    4.9698400135  1.8666181351  1.8564992916 
   H    5.2696727501  0.2094317390  3.6471395339 
   H    6.0620070148 -1.1094118852  5.7370098839 
   H    7.4288030922 -1.8525044554  4.8170046090 
   H    6.2497784014 -2.8820775380  5.6899581619 



