%chk=frag43-conf2.chk
#B3LYP/6-31G* Integral=(Grid=UltraFine) freq Opt pop=none

Optimization for frag43-conf2

1  1
   C    5.0454535175 -3.4605882237  0.2411270594 
   N    4.3884620075 -2.2275704853  0.6807493701 
   C    2.9339306346 -2.3044697991  0.8005848294 
   C    5.1988884184 -1.1083039628  0.8401629904 
   O    6.4052541614 -1.1424272429  0.5677614976 
   C    4.6248219070  0.2724657746  1.2800414162 
   H    3.5348860838  0.2711018854  1.2900379898 
   N    5.0367173495  1.3675540150  0.2557599134 
   H    4.6839859707  2.2877857769  0.5336401358 
   H    6.0681915536  1.4292531810  0.2943618733 
   C    4.6901149053  1.1403942447 -1.1885668478 
   C    5.0151768428  2.3537461438 -2.0720096709 
   N    4.5119235821  3.5731897910 -1.7113613600 
   O    5.7257020593  2.2619119590 -3.0691482256 
   C    5.2595153905  0.7515575542  2.6347660761 
   C    4.7259095900  2.1181450735  3.1229813601 
   C    3.2500257407  2.0346599423  3.4939544893 
   C    3.0344386793  1.0188996104  4.6112176897 
   C    3.6888848006 -0.3363924885  4.3389762508 
   C    5.1145981649 -0.2359121914  3.8044702142 
   H    4.3234321651 -4.2681735021  0.0802273336 
   H    5.7534786629 -3.7708722251  1.0158959075 
   H    5.5875145667 -3.2801170771 -0.6914934959 
   H    2.6281280578 -3.3325085332  1.0315030266 
   H    2.4860749012 -2.0137946979 -0.1544437671 
   H    2.5648888409 -1.6549032419  1.5917916932 
   H    3.6247992863  0.9098454691 -1.2494302011 
   H    5.2954626988  0.2968213802 -1.5291379724 
   H    3.6935915440  3.7327718816 -1.1384932887 
   H    4.6783608008  4.3047982579 -2.4054430028 
   H    6.3402971659  0.8700297833  2.4667219553 
   H    4.8897181366  2.9135655549  2.3909494363 
   H    5.2953089995  2.4276452674  4.0110878274 
   H    2.6495536651  1.7642021853  2.6187505266 
   H    2.8933227650  3.0188875247  3.8179612091 
   H    1.9600888216  0.8774599315  4.7750461756 
   H    3.4420503536  1.4321041182  5.5420796679 
   H    3.0774508488 -0.8959832008  3.6270366309 
   H    3.6971881998 -0.9190929265  5.2681283322 
   H    5.4876863657 -1.2285564865  3.5313426599 
   H    5.7639839459  0.1079413689  4.6231879962 



