%chk=frag54-conf1.chk
#B3LYP/6-31G* Integral=(Grid=UltraFine) freq Opt pop=none

Optimization for frag54-conf1

0  1
   C    1.6107740937 -0.7621724603 -0.7577370286 
   O    2.4725773213  0.0290940977  0.0533253351 
   C    3.0998841947 -0.6244387487  1.0804554858 
   C    3.9309398844  0.1653251299  1.8754556725 
   C    4.6464576314 -0.4047913119  2.9283422349 
   C    4.5545355574 -1.7764586119  3.1724551110 
   C    3.7237508226 -2.5885363151  2.3864271919 
   C    2.9867845802 -1.9901636645  1.3533627231 
   C    3.7366561389 -4.0870036524  2.5793487855 
   N    2.5003907142 -4.7464037837  2.2114817346 
   C    1.5020701850 -4.9848393495  3.1232840108 
   C    0.3022608334 -5.6995403483  2.5592924005 
   O    1.5661265828 -4.6650791397  4.3065809837 
   H    1.2634743372 -0.1469230090 -1.5919490005 
   H    0.7352560832 -1.0835278310 -0.1834008742 
   H    2.1368130891 -1.6223083580 -1.1876407695 
   H    4.0272133646  1.2287791349  1.6706299012 
   H    5.2881355001  0.2169376890  3.5476956738 
   H    5.1437160259 -2.2099484217  3.9781632511 
   H    2.3357302267 -2.6187860291  0.7586042122 
   H    3.9786043630 -4.3389081554  3.6170029326 
   H    4.5175196967 -4.5040755317  1.9331379804 
   H    2.3904016117 -5.0501126596  1.2544125762 
   H    0.4124469440 -5.9074476421  1.4913411841 
   H   -0.5858260077 -5.0781125091  2.7023244734 
   H    0.1759495604 -6.6499963050  3.0853209895 



