%chk=frag41-conf1.chk
#B3LYP/6-31G* Integral=(Grid=UltraFine) freq Opt pop=none

Optimization for frag41-conf1

1  1
   C    4.1599634686  1.7787227251  2.8685425847 
   N    3.9081586676  1.8305589959  1.4315019503 
   C    2.8409455579  2.7036445411  0.9639089872 
   C    4.7055579400  1.0379811268  0.6201162991 
   O    5.6699653220  0.4135126090  1.0621886911 
   C    4.4481819130  1.0264932624 -0.8885605461 
   N    5.2044632714  2.1023099486 -1.6309842251 
   H    4.9662438957  2.0073530856 -2.6296887558 
   H    4.8811669429  3.0163235388 -1.3071792143 
   C    6.7413507881  2.0308786270 -1.5526218249 
   H    6.9812516088  2.1751074127 -0.5045068925 
   C    7.2096767899  0.6654109198 -2.1290591523 
   O    6.7294264136  0.3356272422 -3.2213882421 
   N    8.0812698064 -0.1432878898 -1.4217670583 
   C    8.5014705501  0.0377841442 -0.0354180493 
   C    8.4808970216 -1.4239215138 -1.9985604566 
   C    7.2986429577  3.2036724935 -2.4251010741 
   C    6.9410313988  4.6133923910 -1.8973708526 
   C    7.7045860894  5.0016603362 -0.6309161400 
   C    9.2127867663  4.8238049330 -0.7873161540 
   C    9.5758480704  3.4424955084 -1.3165282865 
   C    8.8274945745  3.1326471041 -2.6078415596 
   H    3.4866200884  2.4405777725  3.4188516366 
   H    5.1957379109  2.0731680182  3.0630838738 
   H    4.0152740051  0.7497425233  3.2135973310 
   H    2.2975829688  3.1523185382  1.7991288980 
   H    2.1390567997  2.1325839961  0.3521838747 
   H    3.2865745696  3.4971940486  0.3572233114 
   H    3.3921357541  1.1733063594 -1.1214066103 
   H    4.7394280566  0.0560349041 -1.3023507754 
   H    8.2662913225  1.0198869961  0.3639429646 
   H    9.5840868935 -0.1064678724  0.0262568376 
   H    8.0028268532 -0.7171309626  0.5790108892 
   H    8.2618016264 -1.4853010044 -3.0670018374 
   H    7.9457972106 -2.2231522891 -1.4759971652 
   H    9.5579068884 -1.5575344528 -1.8534859171 
   H    6.8542547741  3.1145990555 -3.4273850329 
   H    5.8663312081  4.7227387122 -1.7235775610 
   H    7.1847982880  5.3455234955 -2.6797093702 
   H    7.3472441084  4.4045935306  0.2156679686 
   H    7.4923515571  6.0495526969 -0.3864938183 
   H    9.7056478199  4.9897465556  0.1771588142 
   H    9.5988129698  5.5842220452 -1.4771164456 
   H    9.3434273778  2.6949253922 -0.5550362615 
   H    10.6550010021  3.3821618459 -1.4923805010 
   H    9.1353266934  2.1562035652 -2.9951382077 
   H    9.1260679143  3.8620977984 -3.3731186215 



