%chk=frag36-conf1.chk
#B3LYP/6-31G* Integral=(Grid=UltraFine) freq Opt pop=none

Optimization for frag36-conf1

0  1
   C    3.6999213696 -2.3632776737 -0.2288008779 
   C    2.4127862453 -0.2787579894 -0.0613005385 
   C    2.0642662048 -2.0261816978  1.5710471869 
   C    1.4573564529  0.5131819248  0.5820759535 
   C    1.1092456579 -1.2339627743  2.2140591145 
   C    2.7203736305 -1.5503530502  0.4319689572 
   C    0.8036195040  0.0463159122  1.7309144735 
   C   -2.4593911171 -0.2257860750  2.4883856773 
   C   -3.7513861656 -0.3832116425  1.7337954044 
   C   -0.2460841388  0.8889138699  2.4121193886 
   N    4.4947161674 -3.0230696201 -0.7645862103 
   N   -1.5565422773  0.6027602553  1.8723627329 
   O   -2.2562279701 -0.7738913894  3.5697579384 
   H    2.9116239548  0.1042019948 -0.9505522251 
   H    2.2882528305 -3.0166313648  1.9646619558 
   H    1.2256859541  1.4990104437  0.1795824170 
   H    0.5993562341 -1.6224420071  3.0958509445 
   H   -4.2373232841 -1.3159590960  2.0330102444 
   H   -4.4083752632  0.4596153796  1.9641551971 
   H   -3.5692393780 -0.4171872735  0.6558726430 
   H   -0.2307111919  0.7172539234  3.4943029881 
   H   -0.0465003550  1.9538066387  2.2492208481 
   H   -1.7953824997  1.0128895044  0.9744317532 



