%chk=frag28-conf1.chk
#B3LYP/6-31G* Integral=(Grid=UltraFine) freq Opt pop=none

Optimization for frag28-conf1

0  1
   C    0.9992598160 -1.2813508682 -0.1771681929 
   C    2.4843468061 -1.4729158640 -0.0667769228 
   O    2.9915360021 -2.2273199302  0.7566078293 
   N    3.2084359391 -0.7371877950 -0.9746916124 
   C    4.6552686432 -0.7816996024 -1.0162871944 
   C    5.1848322783 -1.7764539398 -2.0111295713 
   C    4.8641996355 -3.1260850993 -1.8782081551 
   N    5.3656076913 -4.1186088518 -2.6501251441 
   C    6.2450296706 -3.7660634622 -3.6043621576 
   C    6.6193323852 -2.4599944220 -3.8454249952 
   C    6.0778207296 -1.4596494907 -3.0390120755 
   Cl    6.5713332690  0.1645618218 -3.3635384289 
   H    0.4953201256 -1.9353989263  0.5403470663 
   H    0.6625816870 -1.5397197931 -1.1846562156 
   H    0.7434816338 -0.2432146444  0.0494981515 
   H    2.7254307797 -0.1591657901 -1.6501413600 
   H    5.0508050113 -1.0295134218 -0.0239386529 
   H    4.9775235018  0.2400149194 -1.2330348510 
   H    4.1799836700 -3.4730805032 -1.1068897612 
   H    6.6577880746 -4.5882333076 -4.1814435602 
   H    7.3276605956 -2.2330033702 -4.6339452794 



