%chk=frag33-conf1.chk
#B3LYP/6-31G* Integral=(Grid=UltraFine) freq Opt pop=none

Optimization for frag33-conf1

0  1
   C    2.4757278669 -1.1651227960  0.4158933632 
   C    2.2965491066  0.3446938202  0.2562653502 
   C    2.6072863416  1.0667015105  1.5631247777 
   C    3.0795211252  0.9447692940 -0.9263916948 
   C    4.6183375326  0.8974833976 -0.8602250245 
   H    4.9301126821  1.3023984394  0.1109485316 
   N    5.1255583894 -0.4748863904 -0.9742557109 
   S    6.6796179260 -0.9012087323 -0.5735298703 
   C    7.6360006288 -0.3085258492 -1.9514375019 
   O    7.0658894318 -0.1920025121  0.6234418135 
   O    6.6913353514 -2.3466699720 -0.6331609174 
   C    5.2179619132  1.8385140846 -1.9223522913 
   O    5.8326662314  2.8420501647 -1.5432244778 
   N    5.0835923364  1.5548959034 -3.2801533369 
   C    4.3452251505  0.4505297773 -3.8743980411 
   C    5.6659122338  2.4798522882 -4.2430781207 
   H    1.6902048083 -1.5745287749  1.0598128844 
   H    3.4356875978 -1.4157451268  0.8787258530 
   H    2.4095099267 -1.6796724743 -0.5487584553 
   H    1.2351317471  0.5150920107  0.0288728201 
   H    3.5919041180  0.7879706272  1.9516181803 
   H    1.8621475167  0.8142418020  2.3238924707 
   H    2.5900397290  2.1524308118  1.4224065536 
   H    2.7775237901  1.9974943396 -1.0249080833 
   H    2.7038498146  0.4614952902 -1.8320341401 
   H    4.5194998178 -1.2417799027 -1.2496018763 
   H    7.5925494288  0.7778218023 -1.9883556973 
   H    7.2422180057 -0.7581430263 -2.8652934397 
   H    8.6718479222 -0.6184980921 -1.8029119170 
   H    4.0295426284 -0.3028095324 -3.1604118585 
   H    4.9830023070 -0.0448397083 -4.6112800899 
   H    3.4600322209  0.8573093541 -4.3733131780 
   H    6.2235506978  3.2918666323 -3.7711264870 
   H    4.8626585170  2.9087553833 -4.8497601146 
   H    6.3489668906  1.9198541454 -4.8892378993 



