%chk=frag2-conf2.chk
#B3LYP/6-31G* Integral=(Grid=UltraFine) freq Opt pop=none SCRF

Optimization for frag2-conf2

0  1
   C    0.1792714000 -3.9508490562  3.9291374683 
   C   -0.1708192229  0.5215694308  3.0863537788 
   C    2.4709210396 -6.2044048309 -0.0438087881 
   C    1.6949591637 -6.2734556198  1.2677676678 
   C    3.0425424576 -4.8124852180 -0.2932612300 
   C    2.5347635746 -5.7801065445  2.4445600510 
   C    3.8740174770 -4.3249073029  0.8919357657 
   C    3.1054084301 -4.3696208000  2.2274022102 
   C   -1.2005939484 -5.3055233955  5.4581441879 
   C    0.7244815826 -4.0793533325  6.3959355354 
   C   -0.0481927320 -1.0214420557  3.0232391357 
   C    2.0547347069 -3.2316448689  2.2953324318 
   C    1.4255901575 -3.0509393215  3.6928331852 
   N   -0.0977775678 -4.3801341057  5.2287044525 
   N    1.0613247156 -1.6003766060  3.8773303032 
   O   -1.1759210825  1.0500757694  2.5298190117 
   O   -0.5855549574 -4.2301487923  2.9954063892 
   O    0.7701416612  1.1121832132  3.7061297894 
   H    3.2903916836 -6.9334445000 -0.0187530424 
   H    1.8172240257 -6.4901514053 -0.8755835295 
   H    0.7792694569 -5.6791329384  1.1807855368 
   H    1.3816850185 -7.3075947762  1.4514989853 
   H    3.6667237282 -4.8306803703 -1.1940737963 
   H    2.2257213593 -4.1091623306 -0.4922969043 
   H    1.9534713030 -5.8348393440  3.3691394329 
   H    3.3743782043 -6.4748082161  2.5825555325 
   H    4.7662982941 -4.9588823318  0.9785063863 
   H    4.2369446754 -3.3094713688  0.6938297153 
   H    3.8366205692 -4.1803445816  3.0250375271 
   H   -0.7930412889 -6.2443251610  5.8451356888 
   H   -1.7635680437 -5.5170593262  4.5459952354 
   H   -1.8783230782 -4.8687472343  6.1975350380 
   H    0.0969690233 -4.0614571571  7.2920770645 
   H    1.2148621082 -3.1095032692  6.3071026802 
   H    1.4814456701 -4.8625941277  6.4936504364 
   H    0.1519727558 -1.3068864346  1.9868009090 
   H   -0.9826514721 -1.4767031670  3.3639838696 
   H    2.5704493523 -2.3024592400  2.0168979168 
   H    1.2787623405 -3.3862707615  1.5380437374 
   H    2.1937372684 -3.2499954700  4.4443044662 
   H    1.8803774118 -0.9932253361  3.7437546253 
   H    0.8058316112 -1.4268723726  4.8547167778 


