%chk=frag14-conf1.chk
#B3LYP/6-31G* Integral=(Grid=UltraFine) freq Opt pop=none

Optimization for frag14-conf1

1  1
   C    5.2441711426 -3.2311806679 -0.4428669512 
   C    0.1597444117 -1.7682352066 -0.0463764481 
   C   -0.1063648909 -2.9498965740 -0.9744336009 
   C    1.2365378141 -0.8430209756 -0.6061055064 
   C    1.1783863306 -3.7094311714 -1.3046387434 
   C    2.5201640129 -1.6073504686 -0.9296914339 
   C    2.2484216690 -2.7729902267 -1.8904242516 
   C    6.2497253418 -2.5081415176  1.6894547939 
   C    4.9353184700 -4.5998153687  1.6551821232 
   C    3.5207436085 -3.5319986343 -2.3322865963 
   C    4.3324489594 -4.2191867828 -1.2202887535 
   N    5.4918541908 -3.4772379398  0.9083904624 
   N    5.2032642365 -5.2406978607 -1.8746659756 
   O    5.7906107903 -2.2850401402 -1.0266633034 
   H   -0.7670819759 -1.2046213150  0.1087422818 
   H    0.4751898646 -2.1411380768  0.9359289408 
   H   -0.8265981674 -3.6306388378 -0.5067154169 
   H   -0.5652808547 -2.5886275768 -1.9030014277 
   H    0.8632244468 -0.3534245193 -1.5139402151 
   H    1.4531928301 -0.0499732010  0.1184973344 
   H    1.5458807945 -4.1880135536 -0.3896789253 
   H    0.9498413205 -4.5107030869 -2.0170898438 
   H    3.2490077019 -0.9178390503 -1.3706781864 
   H    2.9439694881 -1.9768320322  0.0104120644 
   H    1.8264076710 -2.3406367302 -2.8097500801 
   H    5.6033911705 -2.1159691811  2.4804356098 
   H    6.6070008278 -1.6732330322  1.0819656849 
   H    7.1104888916 -3.0135376453  2.1371195316 
   H    4.8806786537 -5.4964075089  1.0349043608 
   H    3.9319241047 -4.3256530762  1.9928202629 
   H    5.5676102638 -4.8211121559  2.5201508999 
   H    3.2038433552 -4.2875022888 -3.0648663044 
   H    4.1618900299 -2.8345820904 -2.8872978687 
   H    3.6700482368 -4.7739534378 -0.5564228296 
   H    4.6622786522 -5.9410357475 -2.3810162544 
   H    5.7773523331 -5.7315082550 -1.1884894371 
   H    5.8445496559 -4.7990927696 -2.5357854366 



