%chk=frag50-conf1.chk
#B3LYP/6-31G* Integral=(Grid=UltraFine) freq Opt pop=none

Optimization for frag50-conf1

1  1
   C    0.9933489004  0.9281967186 -0.6108632737 
   N    2.4494259276  0.9868015175 -0.5819854043 
   C    3.0380443534  2.2694835233 -0.2099972224 
   C    3.1352657971 -0.1303654549 -1.0626778738 
   O    2.5388769692 -1.1044581046 -1.5288421442 
   C    4.6661286654 -0.1104747515 -1.0901498007 
   H    5.0120092872  0.8059405373 -0.6224230618 
   C    5.2296445482 -1.3075071259 -0.2977807211 
   C    6.7659354157 -1.4423770175 -0.3335583082 
   C    7.5192235358 -0.2732670586  0.2935149538 
   N    7.3189204999  0.9875760630 -0.4313185360 
   C    7.3141277202  2.2050095417  0.1316557285 
   N    7.6108663013  2.3798340685  1.4239777138 
   N    6.9668156000  3.2669257283 -0.5970937000 
   H    6.6534534668  3.1594335482 -1.5656291846 
   H    6.9832617508  4.2048487451 -0.2202283146 
   N    5.2321862808 -0.2246178936 -2.4563070856 
   S    5.0546451821  0.9815738796 -3.5878747974 
   C    3.3117409483  0.9706540707 -3.9840652015 
   O    5.4429836949  2.1992016038 -2.8934036984 
   O    5.7900469472  0.5232325876 -4.7392380161 
   H    0.5548340894  1.7561056043 -0.0464424955 
   H    0.6522382275 -0.0167048534 -0.1796610650 
   H    0.6672709624  0.9853097937 -1.6540774752 
   H    2.2859512633  3.0647358521 -0.2415859576 
   H    3.8381708957  2.5449446833 -0.8974433469 
   H    3.4368636357  2.1928738383  0.8052174992 
   H    4.8144413501 -2.2386171402 -0.7082310721 
   H    4.8856749933 -1.2541448236  0.7418615072 
   H    7.1134496138 -1.5939465252 -1.3622951126 
   H    7.0358031314 -2.3530143884  0.2155597467 
   H    8.5935795341 -0.4807219823  0.2862692194 
   H    7.1782695209 -0.1660354357  1.3268455146 
   H    7.0969362357  0.9481282922 -1.4268130691 
   H    7.9010721572  1.6056768900  2.0062700748 
   H    7.6045494344  3.2935564300  1.8556593060 
   H    5.1513003082 -1.1577177151 -2.8782007711 
   H    2.7352393635  1.2726498203 -3.1172944173 
   H    3.0345260543 -0.0325684909 -4.3174022901 
   H    3.1345046413  1.6918711078 -4.7819271567 



