%chk=frag4-conf2.chk
#B3LYP/6-31G* Integral=(Grid=UltraFine) freq Opt pop=none

Optimization for frag4-conf2

0  1
   C   -0.0070658638 -0.8206143379 -0.5512518287 
   C   -0.6503061652 -3.1384592056  1.7917540073 
   C    0.9653846622 -3.7399930954 -1.4628411531 
   C    1.7737354040 -2.5642282963 -0.9225246906 
   C    0.2303631902 -4.2485160828 -0.2338460684 
   C    0.8382294178 -1.9324929714  0.1116295978 
   C   -0.6878718138 -1.8924638033  2.6384210587 
   C   -2.1942515373 -0.2971765697 -1.5830767155 
   N    0.0473625511 -3.0743312836  0.6074158549 
   N   -1.2860971689 -1.1868575811 -0.9061022401 
   O    0.4593462944  0.2869345248 -0.8247806430 
   O   -1.2233874798 -4.1693754196  2.1525275707 
   H    0.2486491501 -3.3876185417 -2.2138941288 
   H    1.5902231932 -4.5088257790 -1.9256998301 
   H    2.6744110584 -2.9428684711 -0.4236496687 
   H    2.0854518414 -1.8786940575 -1.7162380219 
   H   -0.7346240282 -4.7067694664 -0.4704225957 
   H    0.8354939818 -4.9714822769  0.3246496916 
   H    1.3956179619 -1.4771679640  0.9363829494 
   H   -1.0982660055 -1.0539786816  2.0717346668 
   H    0.3172434270 -1.6499551535  2.9924602509 
   H   -1.3289450407 -2.0645134449  3.5081930161 
   H   -2.1924149990  0.6787879467 -1.0905023813 
   H   -3.1963758469 -0.7305761576 -1.5542613268 
   H   -1.8665424585 -0.1827381998 -2.6195425987 
   H   -1.5857648849 -2.1350350380 -0.6884109378 



