%chk=frag46-conf0.chk
#B3LYP/6-31G* Integral=(Grid=UltraFine) freq Opt pop=none

Optimization for frag46-conf0

0  1
   N    1.1236495613 -0.1141424142 -0.0943089777 
   C    2.4859782837 -0.0754796988 -0.0023713823 
   O    3.1293175107  0.8757197920 -0.4267041936 
   C    3.1484795961 -1.2259965122  0.6560670356 
   C    4.3280425745 -1.0037593570  1.3781680309 
   C    4.9983004456 -2.0759215888  1.9698457753 
   C    4.5081294387 -3.3730283658  1.8129529285 
   C    3.3402938902 -3.5904012496  1.0814661481 
   Cl    2.7642118593 -5.1956787042  0.8509537932 
   C    2.6468692198 -2.5238019831  0.5130244239 
   H    0.6702890983  0.7025219618 -0.4843965115 
   H    0.5562138208 -0.7652323905  0.4296510333 
   H    4.7272800236  0.0046800752  1.4747260976 
   H    5.9096585132 -1.9021127905  2.5372883316 
   H    5.0476020809 -4.2098541262  2.2496205497 
   H    1.7516109253 -2.7121667989 -0.0714398043 



