%chk=frag27-conf0.chk
#B3LYP/6-31G* Integral=(Grid=UltraFine) freq Opt pop=none

Optimization for frag27-conf0

1  1
   C    1.2958099894  0.3001060867  2.2353773498 
   C    2.7953781511  0.4484691805  2.1553529983 
   O    3.5797650538  0.1809361707  3.0714179051 
   N    3.2249843283  0.9033036399  0.9308017488 
   C    4.6247343064  1.1115094744  0.6516529582 
   C    5.1709260746  2.3105773214  1.4008247002 
   C    4.5410478551  3.5516246998  1.1644327541 
   C    4.9720460253  4.7109449456  1.8006923705 
   Cl    4.2219075822  6.2126860337  1.4370661107 
   C    6.0154040769  4.6558934706  2.7135990778 
   C    6.6480933103  3.4377180348  2.9717485665 
   C    6.2644783030  2.2576388774  2.2992788460 
   C    7.0580389353  1.0059427857  2.5712612746 
   N    6.5680491751  0.2457741366  3.7353207134 
   H    6.6619187018  0.7877091777  4.6014413642 
   H    5.5587537545  0.0225954623  3.6329652821 
   H    7.0855967274 -0.6324557627  3.8553223131 
   H    1.0001737331 -0.0093495244  3.2403439507 
   H    0.9636309977 -0.4569751316  1.5178253013 
   H    0.8054649258  1.2515682450  2.0024399926 
   H    2.5444311075  1.0997538699  0.2031180082 
   H    4.7410756111  1.2670271629 -0.4259218963 
   H    5.1409394078  0.1850514276  0.9127822986 
   H    3.7043230839  3.6137883290  0.4693882075 
   H    6.3524541269  5.5621064070  3.2126015941 
   H    7.4709123763  3.4367437487  3.6862781488 
   H    8.1054605599  1.2593154190  2.7767509926 
   H    7.0713221291  0.3257357333  1.7159085354 



