%chk=frag31-conf1.chk
#B3LYP/6-31G* Integral=(Grid=UltraFine) freq Opt pop=none

Optimization for frag31-conf1

1  1
   C    2.0879701724 -0.5394428395  3.2801720411 
   C    3.2914844116  0.2409669335  2.8419871021 
   O    4.0791584711  0.7271208752  3.6483840361 
   N    3.4278257206  0.3633969595  1.4768501145 
   C    4.5781810128  0.9717691844  0.8209277258 
   C    5.1211959026  2.2088724433  1.5083098457 
   C    4.4947108812  3.4479140047  1.2776210203 
   C    4.9005732031  4.5816719511  1.9671853077 
   C    5.8975819786  4.4668525562  2.9200864438 
   C    6.4882178432  3.2309815576  3.1435338360 
   N    6.1356507493  2.1389089817  2.4238343968 
   C    6.8700966578  0.8783142955  2.6710536569 
   H    2.0200661424 -0.5041912309  4.3718051633 
   H    2.1884834913 -1.5809586623  2.9654574986 
   H    1.1819702007 -0.0991156559  2.8574769591 
   H    2.8133461101 -0.2039601873  0.9003596767 
   H    4.2520436275  1.2407004771 -0.1918263002 
   H    5.3466570320  0.2042221983  0.6957563128 
   H    3.6695088463  3.5235896118  0.5707988611 
   H    4.4209488411  5.5416532946  1.7835084909 
   H    6.2085156950  5.3345765155  3.4973950562 
   H    7.2506382041  3.1076917167  3.9076748563 
   H    7.5965548410  1.0168350992  3.4755218911 
   H    7.3989409717  0.6238924049  1.7488460197 
   H    6.1847349060  0.0792584048  2.9490351348 



