%chk=frag34-conf2.chk
#B3LYP/6-31G* Integral=(Grid=UltraFine) freq Opt pop=none

Optimization for frag34-conf2

0  1
   C    1.9691233635 -1.1165814400 -0.2457483113 
   C    0.8514117002 -0.4331307113  0.2456711531 
   C    1.5775536299 -0.8707829118  2.5167641640 
   C    2.9000730515 -1.6818177700  0.6342398524 
   C    0.6655755043 -0.3091540933  1.6230243444 
   C    2.6900134087 -1.5512796640  2.0196969509 
   C   -0.9959906936  2.8632299900  3.5411183834 
   C    4.2525377274 -2.5020604134 -1.1579165459 
   N   -0.0754957199  2.0102343559  2.7639551163 
   O   -1.6616084576  0.8382350802  1.1694967747 
   O   -1.2182276249 -0.1779317707  3.4382157326 
   O    4.0215930939 -2.3676831722  0.2423195243 
   S   -0.7541601062  0.5330682397  2.2605359554 
   Cl    3.8005471230 -2.2290012836  3.1619789600 
   H    2.0800256729 -1.1893068552 -1.3246097565 
   H    0.1377235800 -0.0028880863 -0.4544827342 
   H    1.4234694242 -0.7744650841  3.5886993408 
   H   -1.2906229496  2.3700811863  4.4708099365 
   H   -1.8790360689  3.1186416149  2.9490993023 
   H   -0.4793350399  3.7933392525  3.7956092358 
   H    5.1813626289 -3.0655117035 -1.2889019251 
   H    4.3868565559 -1.5236532688 -1.6306022406 
   H    3.4480915070 -3.0698239803 -1.6366919279 
   H    0.2501821816  2.5074150562  1.9251424074 



