%chk=frag39-conf0.chk
#B3LYP/6-31G* Integral=(Grid=UltraFine) freq Opt pop=none

Optimization for frag39-conf0

0  1
   C    3.0778624322 -0.8823043581  1.0589252974 
   C    2.6233911196  0.0710447236 -0.0366874169 
   C    3.1137996513  1.4993831842  0.1864519455 
   N    4.5613483179  1.5852114133  0.1754397408 
   C    5.2779323006  2.0221675727  1.2653066515 
   C    6.7700580699  2.0334708584  1.0670382333 
   O    4.7679626582  2.3758316575  2.3241079583 
   H    2.6805826095 -1.8855977733  0.8766684738 
   H    2.7250280636 -0.5479146890  2.0395278012 
   H    4.1692853824 -0.9575325500  1.0930474828 
   H    1.5275579628  0.0739027121 -0.0737603885 
   H    2.9774735853 -0.2993791846 -1.0059375617 
   H    2.7117965745  1.8950626538  1.1249298575 
   H    2.7547072553  2.1407292182 -0.6254216629 
   H    5.0496425357  1.3243998892 -0.6710001858 
   H    7.0554734066  1.6761020002  0.0741507008 
   H    7.2323921031  1.3845290233  1.8160614890 
   H    7.1372463914  3.0561411343  1.1889558147 



