%chk=frag45-conf0.chk
#B3LYP/6-31G* Integral=(Grid=UltraFine) freq Opt pop=none

Optimization for frag45-conf0

0  1
   C    1.0509531810  0.0727784932  0.0010082151 
   C    2.5533342491  0.1657854549 -0.0167589163 
   O    3.1611526498  1.2223805463  0.1196003756 
   N    3.1628294307 -1.0544405025 -0.1802003877 
   C    4.5876424322 -1.2131166103 -0.0031060067 
   C    5.0726788746 -2.6438911138 -0.1134826169 
   C    6.3507997077 -2.8536003366 -0.6747528905 
   C    6.8560418575 -4.1431306243 -0.8582658909 
   Cl    8.3926241344 -4.3649252291 -1.5981163709 
   C    6.1187477430 -5.2513294092 -0.4593287143 
   C    4.8838115736 -5.0649136227  0.1578770639 
   C    4.3695114731 -3.7749520923  0.3442389814 
   Cl    2.8454983185 -3.6754967579  1.1573993006 
   H    0.6162952987  1.0746105961  0.0478091235 
   H    0.7288420878 -0.4942624892  0.8797949625 
   H    0.6955520028 -0.4242411524 -0.9060908543 
   H    2.5813789956 -1.8773216527 -0.0792788112 
   H    4.8818214501 -0.7907131610  0.9643531885 
   H    5.0561156852 -0.6020803072 -0.7858450985 
   H    6.9568818018 -2.0018677399 -0.9815630279 
   H    6.4984755486 -6.2574757444 -0.6157009048 
   H    4.3200810989 -5.9335130675  0.4919033745 



