%chk=frag40-conf0.chk
#B3LYP/6-31G* Integral=(Grid=UltraFine) freq Opt pop=none

Optimization for frag40-conf0

1  1
   C    4.0332116979  2.7622856062  1.2196577383 
   N    3.9847307730  1.5171138190  0.4857844960 
   C    4.7005367481  1.3247010691 -0.6751366169 
   O    5.4274815933  2.1646586686 -1.1911261080 
   C    4.5304655934 -0.0662203450 -1.2854277088 
   N    5.3207060678 -0.3056021453 -2.5381334424 
   H    5.0363482344 -1.2151745818 -2.9274793415 
   H    5.0237115251  0.4237281578 -3.1941039760 
   C    6.8610374267 -0.3096197504 -2.5099181326 
   H    7.1946135171  0.6680481699 -2.1752943621 
   C    7.3804231658 -1.4393587439 -1.5758647162 
   O    7.3400549889 -2.6001010314 -1.9956226856 
   N    7.7665944803 -1.1505513714 -0.2710066340 
   C    7.6300683374  0.1200033065  0.4319092099 
   C    8.3360611127 -2.2213314565  0.5467441665 
   C    7.2908318378 -0.5437006638 -4.0094789365 
   C    6.8270956930  0.5822685335 -4.9640793385 
   C    7.5095380536  1.9059748266 -4.6341003325 
   C    9.0219150383  1.7767962678 -4.7790291648 
   C    9.6030748590  0.5756162372 -4.0310814517 
   C    8.8074994099 -0.7136408225 -4.2270565661 
   H    3.3426047075  2.6898870541  2.0640461654 
   H    3.7407389008  3.5869645317  0.5653412889 
   H    5.0508968138  2.9228378857  1.5844954761 
   H    3.3148529355  0.8275737805  0.8077062817 
   H    3.4823240446 -0.1550164960 -1.5915272797 
   H    4.7737035893 -0.8508244128 -0.5674695977 
   H    7.3432801229  0.9355912168 -0.2204115428 
   H    8.5824775241  0.3791392636  0.9016212152 
   H    6.8678142285 -0.0005646947  1.2099217943 
   H    8.5358258870 -3.1274283215 -0.0292525916 
   H    7.6438027386 -2.4538463475  1.3617856979 
   H    9.2822204095 -1.8678279159  0.9709195598 
   H    6.8189107886 -1.4763583023 -4.3517699303 
   H    5.7408795020  0.7043151095 -4.9661465494 
   H    7.0825178436  0.3025073296 -5.9958950721 
   H    7.2570802756  2.2305251176 -3.6191336069 
   H    7.1403462710  2.6903155578 -5.3038951498 
   H    9.5055400713  2.6950186644 -4.4267665495 
   H    9.2625464919  1.6856629374 -5.8455976779 
   H    9.6620719590  0.8029400156 -2.9615259263 
   H    10.6321322128  0.4126987627 -4.3755447510 
   H    9.2162818917 -1.5035843423 -3.5887868954 
   H    8.9658114067 -1.0593947768 -5.2592799955 



