%chk=frag1-conf0.chk
#B3LYP/6-31G* Integral=(Grid=UltraFine) freq Opt pop=none

Optimization for frag1-conf0

1  1
   C    6.5727651654 -1.8520840618 -1.8337109452 
   C    6.2732351105 -0.9594793979 -0.6620251455 
   O    7.0032489699 -0.0296677977 -0.3297716575 
   N    5.1404359811 -1.3198579890  0.0350394349 
   C    4.6826378280 -0.5842980914  1.1948084948 
   C    5.2566339020 -1.1167762701  2.5092390931 
   C    6.7830911960 -1.1214247802  2.5914893366 
   N    7.3626861492  0.2206422150  2.4565891559 
   C    8.6759460175  0.4633998003  2.3357351374 
   N    9.1028651501  1.7170470282  2.1498939992 
   N    9.5855596557 -0.5106806510  2.4324281999 
   H    9.3042566450 -1.4733469390  2.5506888939 
   H    10.5741629280 -0.3230660796  2.3464173576 
   H    7.5045203967 -1.5285405362 -2.3061655811 
   H    5.7635906914 -1.7935955637 -2.5656097256 
   H    6.6938825717 -2.8839133798 -1.4915007090 
   H    4.5657640868 -2.0799925266 -0.3152887697 
   H    3.5901219841 -0.6616131002  1.2151974506 
   H    4.9321822783  0.4747997283  1.0692911746 
   H    4.9016678557 -2.1430154890  2.6646386407 
   H    4.8583205760 -0.5112054550  3.3321401437 
   H    7.1988748298 -1.7682619421  1.8121691793 
   H    7.0822856896 -1.5161175939  3.5677100725 
   H    6.7500634919  1.0017315018  2.2631811980 
   H    8.4532526705  2.4827149830  2.0289088725 
   H    10.0868903327  1.9309722714  2.0629413036 



