%chk=frag21-conf2.chk
#B3LYP/6-31G* Integral=(Grid=UltraFine) freq Opt pop=none

Optimization for frag21-conf2

1  1
   C    4.3076608173  0.9896486222 -3.5890751343 
   C    4.3372067455  1.6908756606 -2.2628397402 
   O    4.1254717167  2.8937612664 -2.1608189017 
   N    4.6678766300  0.8819766997 -1.1915022261 
   C    4.5398596548  1.3270812251  0.1927015494 
   C    5.0834575108  2.7195185811  0.4652324068 
   C    4.1876466789  3.8042663360  0.4746399106 
   C    4.6695851611  5.1013253620  0.4970385678 
   Cl    3.5875844664  6.4229894906  0.3358622369 
   C    6.0284369444  5.3268816049  0.5979529080 
   C    6.8854392573  4.2389655563  0.6513045951 
   N    6.4236210769  2.9673777051  0.5614677927 
   C    7.4072367346  1.8664582799  0.5099028840 
   H    4.1587036074  1.7300855261 -4.3814873078 
   H    3.4819755148  0.2749405400 -3.6132708538 
   H    5.2587587445  0.4804914530 -3.7617959852 
   H    4.5512785614 -0.1137507434 -1.3577069333 
   H    5.0697890367  0.5932784872  0.8091553670 
   H    3.4831811669  1.2601697826  0.4758369033 
   H    3.1201452690  3.6299134040  0.3440750791 
   H    6.4242840619  6.3391876086  0.6097285382 
   H    7.9595156216  4.3829205514  0.7362432188 
   H    8.4191349087  2.2604961130  0.6351111876 
   H    7.3263452957  1.3815457020 -0.4652222272 
   H    7.1921811872  1.1746218889  1.3277675974 



