%chk=frag43-conf0.chk
#B3LYP/6-31G* Integral=(Grid=UltraFine) freq Opt pop=none

Optimization for frag43-conf0

1  1
   C    5.0383183149 -3.4777724001  0.2380901758 
   N    4.3795946698 -2.2434028136  0.6687116358 
   C    2.9243875753 -2.3199910355  0.7934257261 
   C    5.1816292249 -1.1155697275  0.8140468208 
   O    6.3841590763 -1.1398409557  0.5205285768 
   C    4.6045576377  0.2541912533  1.2761677493 
   H    3.5165720042  0.2481777003  1.3039042349 
   N    5.0275967263  1.3704625754  0.2853816611 
   H    4.6343473494  2.2506720928  0.6309238295 
   H    6.0542722953  1.4286901138  0.3365144164 
   C    4.6568854270  1.3218507653 -1.1615761105 
   C    3.1778629289  1.0961507055 -1.4153470401 
   N    2.8557162834  0.4902604713 -2.5889650767 
   O    2.3237322685  1.4378957382 -0.5979366935 
   C    5.2504018186  0.7313826587  2.6334669838 
   C    4.7270485525  2.1041515360  3.1270778854 
   C    3.2498048110  2.0284625748  3.4916767608 
   C    3.0319555415  1.0150292301  4.6102370306 
   C    3.6862141791 -0.3424480457  4.3434488144 
   C    5.1107474727 -0.2484130060  3.8060716581 
   H    4.3180228268 -4.2875920426  0.0801899926 
   H    5.7448011157 -3.7825936351  1.0165346478 
   H    5.5831197826 -3.3029709490 -0.6939464226 
   H    2.6191354463 -3.3497427815  1.0180298500 
   H    2.4730907129 -2.0233383771 -0.1580350947 
   H    2.5588003910 -1.6769338733  1.5914450687 
   H    5.2872624301  0.5818380887 -1.6563504583 
   H    4.9010601102  2.3196704727 -1.5490067562 
   H    3.5257587470  0.1863960529 -3.2876086952 
   H    1.8738735767  0.3638523034 -2.8166668213 
   H    6.3308350751  0.8467213359  2.4592494052 
   H    4.8999957789  2.9069405961  2.4050853226 
   H    5.2962331013  2.4061865822  4.0176658613 
   H    2.6502846214  1.7588548135  2.6154903764 
   H    2.8952943689  3.0145453178  3.8126738931 
   H    1.9574502610  0.8751072760  4.7730498531 
   H    3.4390357644  1.4313384031  5.5400043023 
   H    3.0739603412 -0.9044221664  3.6341429617 
   H    3.6960632622 -0.9199718492  5.2755011221 
   H    5.4843582919 -1.2413071289  3.5357182102 
   H    5.7627908618  0.1014819480  4.6204417692 



