%chk=frag45-conf2.chk
#B3LYP/6-31G* Integral=(Grid=UltraFine) freq Opt pop=none

Optimization for frag45-conf2

0  1
   C    1.0954726710 -0.3217096099 -1.0617850552 
   C    2.5981879635 -0.3488773708 -1.1474811790 
   O    3.2149344827  0.2175202781 -2.0437131752 
   N    3.1950063951 -1.0567859509 -0.1324637526 
   C    4.6319717922 -1.1843974218 -0.0074973763 
   C    5.0922217393 -2.6189853484 -0.1170601911 
   C    5.9356140204 -2.9779671381 -1.1868598772 
   C    6.3575037622 -4.2981624394 -1.3546685208 
   Cl    7.3582522043 -4.7129438614 -2.6907886921 
   C    5.9668626029 -5.2826735924 -0.4529705903 
   C    5.1605093345 -4.9393547272  0.6329703105 
   C    4.7253915904 -3.6181582246  0.8008438214 
   Cl    3.7287091142 -3.2747924511  2.1705517670 
   H    0.6892346330  0.2137515875 -1.9252015122 
   H    0.7820545583  0.1936964563 -0.1497543245 
   H    0.7009423714 -1.3415090626 -1.0670517601 
   H    2.6238684648 -1.4267920509  0.6171174721 
   H    4.9236334711 -0.7699076869  0.9633721946 
   H    5.1221972051 -0.5695444426 -0.7705365208 
   H    6.2604336568 -2.2221147177 -1.9004160979 
   H    6.2847740435 -6.3133829276 -0.5885554353 
   H    4.8701605234 -5.7102466931  1.3434376064 



