%chk=frag31-conf0.chk
#B3LYP/6-31G* Integral=(Grid=UltraFine) freq Opt pop=none

Optimization for frag31-conf0

1  1
   C    6.7303669044 -0.4042296328 -2.0271644450 
   C    6.0614309005 -0.3584572023 -0.6819599315 
   O    6.1547307021 -1.2515109401  0.1537983413 
   N    5.3834406981  0.8115338803 -0.4323396183 
   C    4.5935050835  0.9799108656  0.7694740471 
   C    5.0525872198  2.1805701497  1.5662430205 
   C    4.4569653045  3.4297043628  1.3126360851 
   C    4.8814450944  4.5636682456  1.9893130478 
   C    5.8843634101  4.4448943714  2.9355458751 
   C    6.4594807733  3.2024171178  3.1690240044 
   N    6.0700891320  2.1039404334  2.4758883676 
   C    6.8095542747  0.8390542727  2.6938044424 
   H    7.2206166349 -1.3722971330 -2.1609159684 
   H    7.4836101075  0.3863830188 -2.0863942311 
   H    5.9909683649 -0.2708910335 -2.8217710279 
   H    5.2864497121  1.4819855430 -1.1883524711 
   H    4.6086269076  0.0792753829  1.3898188988 
   H    3.5515595074  1.1099112971  0.4553467312 
   H    3.6604666086  3.5201767864  0.5746482164 
   H    4.4309904614  5.5327975085  1.7791070153 
   H    6.2259470792  5.3205680159  3.4838884904 
   H    7.2490631218  3.0845352759  3.9068297084 
   H    7.5585990797  0.9787619081  3.4782923832 
   H    7.3183745272  0.5859613420  1.7622203012 
   H    6.1045417562  0.0682737381  3.0092742368 



