%chk=frag23-conf2.chk
#B3LYP/6-31G* Integral=(Grid=UltraFine) freq Opt pop=none

Optimization for frag23-conf2

0  1
   C    1.1579855381  0.8154206129  1.0469648908 
   N    2.6115941673  0.8160749849  1.0319827044 
   C    3.2953884074  2.0858088629  0.8524732937 
   C    3.2617306438 -0.3949440344  1.2501413797 
   O    2.6404101887 -1.4295853224  1.5126130493 
   C    4.7864331669 -0.4308958663  1.1630030455 
   N    5.3625108913 -0.7698789915  2.4792745806 
   S    7.0379270352 -0.8887620868  2.5430077816 
   C    7.5284835222  0.8232258813  2.4911988244 
   O    7.3640957531 -1.4174273265  3.8466454075 
   O    7.4802317954 -1.5350927789  1.3279295216 
   H    0.7562603410  1.8174801853  0.8749237248 
   H    0.8045086312  0.4441075175  2.0134309027 
   H    0.7988668296  0.1472280091  0.2578614201 
   H    2.5866457176  2.9103028431  0.7424957869 
   H    3.9132134641  2.0328015078 -0.0484394329 
   H    3.9325746452  2.2737199006  1.7218523321 
   H    5.1977822116  0.5174481994  0.8234336197 
   H    5.0405578511 -1.1961584486  0.4230508238 
   H    4.9229186323 -1.5897788798  2.9128793389 
   H    7.0728848686  1.3494543590  3.3312824432 
   H    7.2164363224  1.2575294591  1.5398562223 
   H    8.6168459934  0.8649872033  2.5664312454 



