%chk=frag52-conf0.chk
#B3LYP/6-31G* Integral=(Grid=UltraFine) freq Opt pop=none

Optimization for frag52-conf0

0  1
   C    1.0426092377 -0.0422535587 -0.1302402550 
   C    2.5430872834 -0.0357985126 -0.0322772260 
   O    3.1347166515  0.0904838546  1.0360634538 
   N    3.1834835317 -0.1837385382 -1.2381234101 
   C    4.6273223507 -0.1957400260 -1.3064458666 
   C    5.0981574737 -0.3878375940 -2.7187417848 
   C    5.3624126485  0.7020230221 -3.5475573595 
   C    5.7261147196  0.4534430573 -4.8605706760 
   N    5.8106132491 -0.7837870288 -5.3994189416 
   C    5.5607560904 -1.8264804342 -4.5912947992 
   N    5.7176611863 -3.0977365705 -5.1335575245 
   C    5.2314326285 -1.6739583276 -3.2520986051 
   H    0.6121999707  0.0732016978  0.8691123466 
   H    0.6986243879 -0.9906676453 -0.5517593832 
   H    0.7042793616  0.7883558221 -0.7555164238 
   H    2.6462410336 -0.2663003846 -2.0919539501 
   H    5.0008406060 -0.9996662029 -0.6609906491 
   H    5.0039940489  0.7466014876 -0.8919810235 
   H    5.2947712997  1.7219779959 -3.1830976118 
   H    5.9671139495  1.2691780167 -5.5369458343 
   H    5.8176747265 -2.9921201435 -6.1398879890 
   H    4.9794941253 -3.7377281933 -4.8725631908 
   H    5.0695196168 -2.5494691371 -2.6317622853 



